chandeg.con: written by SWAT+ editor v2.1.0 on 2026-01-19 18:46 for SWAT+ rev.2.1.4
      id  name                gis_id          area           lat           lon          elev      lcha               wst       cst      ovfl      rule   out_tot       obj_typ    obj_id       hyd_typ          frac  
       1  cha001                   0       2.34255      54.67962      17.16845       2.10068         1     s54557n17055e         0         0         0         1           sdc        57           tot       1.00000  
       2  cha002                   0       0.77095      54.53343      17.39269      78.02845         2     s54426n17292e         0         0         0         1           res       228           tot       1.00000  
       3  cha003                   0       9.33910      54.52876      17.38138      77.75547         3     s54426n17292e         0         0         0         1           res       224           tot       1.00000  
       4  cha004                   0       0.35880      54.52129      17.37209      74.16061         4     s54426n17292e         0         0         0         1           res       222           tot       1.00000  
       5  cha005                   0      14.16640      54.51232      17.34548      53.27064         5     s54426n17292e         0         0         0         1           sdc        77           tot       1.00000  
       6  cha006                   0      77.22290      54.63887      17.06258       1.92876         6     s54557n17055e         0         0         0         1           res       255           tot       1.00000  
       7  cha007                   0      22.70360      54.56891      17.33833      37.54667         7     s54513n17134e         0         0         0         1           sdc        79           tot       1.00000  
       8  cha008                   0       3.42740      54.48922      17.29611      59.15261         8     s54426n17292e         0         0         0         1           res       210           tot       1.00000  
       9  cha009                   0      76.03646      54.49623      17.30235      50.43554         9     s54426n17292e         0         0         0         1           sdc        75           tot       1.00000  
      10  cha010                   0      62.20270      54.61106      17.07326       6.75508        10     s54557n17055e         0         0         0         1           res       255           tot       1.00000  
      11  cha011                   0      72.54700      54.54897      17.33765      50.26506        11     s54513n17134e         0         0         0         1           sdc        78           tot       1.00000  
      12  cha012                   0     109.93140      54.43529      17.33443      74.00034        12     s54426n17292e         0         0         0         1           sdc        63           tot       1.00000  
      13  cha013                   0       6.51597      54.39362      17.36260      91.49198        13     s54381n17294e         0         0         0         1           res       138           tot       1.00000  
      14  cha014                   0      24.63210      54.40786      17.34945      82.61812        14     s54426n17292e         0         0         0         1           sdc        61           tot       1.00000  
      15  cha015                   0      69.88040      54.48021      17.45878      73.06550        15     s54383n17448e         0         0         0         1           sdc        58           tot       1.00000  
      16  cha016                   0      12.41200      54.34052      17.81429     182.90765        16     s54297n17835e         0         0         0         1           sdc        53           tot       1.00000  
      17  cha017                   0      45.62520      54.57012      17.14861      21.49069        17     s54557n17055e         0         0         0         1           sdc        94           tot       1.00000  
      18  cha018                   0       8.53190      54.52584      17.41033      76.24574        18     s54426n17292e         0         0         0         1           res       223           tot       1.00000  
      19  cha019                   0      93.54910      54.51163      17.41545      73.99554        19     s54426n17292e         0         0         0         1           sdc        58           tot       1.00000  
      20  cha020                   0      58.65522      54.56505      17.28222      35.97726        20     s54513n17134e         0         0         0         1           sdc        80           tot       1.00000  
      21  cha021                   0      33.31020      54.42213      17.39604      71.57087        21     s54383n17448e         0         0         0         1           sdc        70           tot       1.00000  
      22  cha022                   0       1.03230      54.35861      17.95392     220.99297        22     s54297n17835e         0         0         0         1           res        85           tot       1.00000  
      23  cha023                   0      43.76780      54.37850      17.91442     183.93098        23     s54297n17835e         0         0         0         1           res       140           tot       1.00000  
      24  cha024                   0      18.43590      54.65407      17.17438       2.32830        24     s54557n17055e         0         0         0         1           res       255           tot       1.00000  
      25  cha025                   0       3.39630      54.29020      17.70762     203.16247        25     s54296n17759e         0         0         0         1           res        16           tot       1.00000  
      26  cha026                   0      59.94060      54.26408      17.65569     160.78099        26      s5425n17606e         0         0         0         1           res         7           tot       1.00000  
      27  cha027                   0      99.85400      54.26352      17.59877     120.67497        27      s5425n17606e         0         0         0         1           res        43           tot       1.00000  
      28  cha028                   0      45.60080      54.61455      17.10578      11.08402        28     s54557n17055e         0         0         0         1           sdc        55           tot       1.00000  
      29  cha029                   0      42.89570      54.35504      17.91223     194.54877        29     s54297n17835e         0         0         0         1           sdc        56           tot       1.00000  
      30  cha030                   0     146.37360      54.45077      17.43652      70.34961        30     s54383n17448e         0         0         0         1           sdc       100           tot       1.00000  
      31  cha031                   0      24.53620      54.63896      17.03873       2.70612        31     s54557n17055e         0         0         0         1           res       255           tot       1.00000  
      32  cha032                   0      55.59560      54.62880      17.10330       1.93174        32     s54557n17055e         0         0         0         1           res       255           tot       1.00000  
      33  cha033                   0      33.26050      54.37450      17.77380     177.07953        33     s54296n17759e         0         0         0         1           res       133           tot       1.00000  
      34  cha034                   0     388.93980      54.40218      17.75126     138.05716        34     s54296n17759e         0         0         0         1           sdc        99           tot       1.00000  
      35  cha035                   0       5.59580      54.31095      17.72132     186.63740        35     s54296n17759e         0         0         0         1           res        26           tot       1.00000  
      36  cha036                   0       6.83470      54.31558      17.73121     176.05797        36     s54296n17759e         0         0         0         1           res        31           tot       1.00000  
      37  cha037                   0     602.71350      54.35123      17.70531     142.88881        37     s54296n17759e         0         0         0         1           sdc        62           tot       1.00000  
      38  cha038                   0      71.18290      54.31996      17.66831     150.64984        38     s54296n17759e         0         0         0         1           sdc        59           tot       1.00000  
      39  cha039                   0       9.21210      54.40558      17.98841     192.21546        39     s54297n17835e         0         0         0         1           res       149           tot       1.00000  
      40  cha040                   0      23.21840      54.41594      17.97171     166.50187        40     s54297n17835e         0         0         0         1           res       153           tot       1.00000  
      41  cha041                   0      29.14440      54.42040      17.95783     159.33873        41     s54297n17835e         0         0         0         1           res       154           tot       1.00000  
      42  cha042                   0      10.12450      54.60044      17.15680      17.81947        42     s54557n17055e         0         0         0         1           res       247           tot       1.00000  
      43  cha043                   0      19.00170      54.62796      17.19763      10.05643        43     s54557n17055e         0         0         0         1           sdc        85           tot       1.00000  
      44  cha044                   0      67.11099      54.47944      17.23219      56.49503        44     s54424n17215e         0         0         0         1           sdc       104           tot       1.00000  
      45  cha045                   0       1.57340      54.67169      17.16336       2.27309        45     s54557n17055e         0         0         0         1           sdc        57           tot       1.00000  
      46  cha046                   0      18.63990      54.40631      17.32620      77.83966        46     s54426n17292e         0         0         0         1           sdc        61           tot       1.00000  
      47  cha047                   0     298.52500      54.33417      17.62298     120.64416        47     s54339n17526e         0         0         0         1           sdc        59           tot       1.00000  
      48  cha048                   0      76.84480      54.63856      17.04782       1.92944        48     s54557n17055e         0         0         0         1           res       255           tot       1.00000  
      49  cha049                   0     120.16350      54.40678      17.89162     155.93320        49     s54297n17835e         0         0         0         1           res       140           tot       1.00000  
      50  cha050                   0      39.39950      54.60934      17.02776       9.26867        50     s54557n17055e         0         0         0         1           sdc        48           tot       1.00000  
      51  cha051                   0       5.44020      54.62678      17.08900       2.04498        51     s54557n17055e         0         0         0         1           sdc        55           tot       1.00000  
      52  cha052                   0      78.38330      54.35736      17.87099     177.00382        52     s54297n17835e         0         0         0         1           sdc        56           tot       1.00000  
      53  cha053                   0      61.88744      54.35099      17.83762     160.25790        53     s54297n17835e         0         0         0         1           res        78           tot       1.00000  
      54  cha054                   0      78.82252      54.36515      17.84505     158.43231        54     s54297n17835e         0         0         0         1           sdc        65           tot       1.00000  
      55  cha055                   0       0.01680      54.63348      17.08650       1.92896        55     s54557n17055e         0         0         0         1           res       255           tot       1.00000  
      56  cha056                   0      84.07330      54.36777      17.85565     162.93969        56     s54297n17835e         0         0         0         1           sdc        65           tot       1.00000  
      57  cha057                   0       0.83970      54.66453      17.15526       2.20822        57     s54557n17055e         0         0         0         1           res       255           tot       1.00000  
      58  cha058                   0      19.13960      54.49677      17.40873      71.55835        58     s54426n17292e         0         0         0         1           sdc       103           tot       1.00000  
      59  cha059                   0     400.61520      54.34245      17.62723     115.76058        59     s54339n17526e         0         0         0         1           res        64           tot       1.00000  
      60  cha060                   0     418.71464      54.35869      17.63141     110.45259        60     s54339n17526e         0         0         0         1           sdc        62           tot       1.00000  
      61  cha061                   0      73.38959      54.42656      17.34477      74.46620        61     s54426n17292e         0         0         0         1           sdc        63           tot       1.00000  
      62  cha062                   0     606.68828      54.37492      17.62954     108.64947        62     s54339n17526e         0         0         0         1           sdc        69           tot       1.00000  
      63  cha063                   0     115.26600      54.43801      17.35469      71.11607        63     s54426n17292e         0         0         0         1           res       175           tot       1.00000  
      64  cha064                   0     143.39910      54.45113      17.36147      67.16562        64     s54426n17292e         0         0         0         1           sdc       101           tot       1.00000  
      65  cha065                   0     181.20680      54.38475      17.85001     155.06460        65     s54297n17835e         0         0         0         1           res       140           tot       1.00000  
      66  cha066                   0      20.00180      54.40375      17.85540     152.52924        66     s54297n17835e         0         0         0         1           res       148           tot       1.00000  
      67  cha067                   0     341.41110      54.41025      17.79824     144.66836        67     s54297n17835e         0         0         0         1           sdc        99           tot       1.00000  
      68  cha068                   0     583.77780      54.38589      17.65704     117.09143        68     s54339n17526e         0         0         0         1           sdc        69           tot       1.00000  
      69  cha069                   0    1325.64070      54.38622      17.51204      87.27651        69     s54383n17448e         0         0         0         1           sdc        70           tot       1.00000  
      70  cha070                   0    1542.34970      54.43082      17.41435      66.36807        70     s54383n17448e         0         0         0         1           res       177           tot       1.00000  
      71  cha071                   0    1555.92755      54.44347      17.41253      64.39818        71     s54383n17448e         0         0         0         1           sdc       100           tot       1.00000  
      72  cha072                   0    1731.48740      54.47083      17.40485      59.98352        72     s54426n17292e         0         0         0         1           sdc        73           tot       1.00000  
      73  cha073                   0    1761.85800      54.48427      17.37791      54.22844        73     s54426n17292e         0         0         0         1           sdc        74           tot       1.00000  
      74  cha074                   0    1996.01880      54.49164      17.33753      46.47884        74     s54426n17292e         0         0         0         1           sdc        75           tot       1.00000  
      75  cha075                   0    2082.31760      54.50520      17.30167      40.50852        75     s54426n17292e         0         0         0         1           sdc        76           tot       1.00000  
      76  cha076                   0    2227.47928      54.51476      17.30640      36.62784        76     s54426n17292e         0         0         0         1           sdc        77           tot       1.00000  
      77  cha077                   0    2302.43500      54.53928      17.32537      31.97970        77     s54513n17134e         0         0         0         1           sdc        78           tot       1.00000  
      78  cha078                   0    2393.75080      54.56593      17.31807      29.54555        78     s54513n17134e         0         0         0         1           sdc        79           tot       1.00000  
      79  cha079                   0    2406.33238      54.57104      17.29872      27.51330        79     s54513n17134e         0         0         0         1           sdc        80           tot       1.00000  
      80  cha080                   0    2502.32420      54.57770      17.25957      23.33545        80     s54513n17134e         0         0         0         1           sdc        82           tot       1.00000  
      81  cha081                   0    2551.72320      54.59208      17.19423      12.83150        81     s54513n17134e         0         0         0         1           sdc        83           tot       1.00000  
      82  cha082                   0    2543.52880      54.57607      17.21310      17.58191        82     s54513n17134e         0         0         0         1           sdc        81           tot       1.00000  
      83  cha083                   0    2780.34120      54.62331      17.20130       9.08434        83     s54557n17055e         0         0         0         1           sdc        85           tot       1.00000  
      84  cha084                   0       4.64200      54.66236      17.18038       2.91761        84     s54557n17055e         0         0         0         1           res       255           tot       1.00000  
      85  cha085                   0    2780.85840      54.65160      17.21318       6.97850        85     s54557n17055e         0         0         0         1           sdc       105           tot       1.00000  
      86  cha086                   0     185.40680      54.66575      17.06069       1.45972        86     s54557n17055e         0         0         0         0  
      87  cha087                   0      15.18800      54.40714      17.93941     191.34132        87     s54297n17835e         0         0         0         1           res       150           tot       1.00000  
      88  cha088                   0       4.35864      54.41581      17.93480     159.33728        88     s54297n17835e         0         0         0         1           res       154           tot       1.00000  
      89  cha089                   0       3.99769      54.41069      17.95419     189.75182        89     s54297n17835e         0         0         0         1           res       154           tot       1.00000  
      90  cha090                   0       0.11700      54.41395      17.92213     159.33555        90     s54297n17835e         0         0         0         1           res       154           tot       1.00000  
      91  cha091                   0      93.11370      54.57923      17.12871      26.39816        91     s54557n17055e         0         0         0         1           sdc        94           tot       1.00000  
      92  cha092                   0      54.28060      54.57943      17.07771      20.43991        92     s54557n17055e         0         0         0         1           sdc        10           tot       1.00000  
      93  cha093                   0      31.95590      54.58470      17.05129      13.82358        93     s54557n17055e         0         0         0         1           sdc        10           tot       1.00000  
      94  cha094                   0     160.68644      54.59375      17.16998      14.61089        94     s54557n17055e         0         0         0         1           sdc        83           tot       1.00000  
      95  cha095                   0      24.23640      54.33524      17.87784     189.63845        95     s54297n17835e         0         0         0         1           res        54           tot       1.00000  
      96  cha096                   0      15.44400      54.34488      17.84798     164.50510        96     s54297n17835e         0         0         0         1           res        57           tot       1.00000  
      97  cha097                   0      25.56970      54.34498      17.84020     162.64071        97     s54297n17835e         0         0         0         1           sdc        53           tot       1.00000  
      98  cha098                   0       2.45900      54.40030      17.97214     215.14941        98     s54297n17835e         0         0         0         1           sdc        39           tot       1.00000  
      99  cha099                   0     500.55670      54.40122      17.71958     131.93982        99     s54296n17759e         0         0         0         1           sdc        68           tot       1.00000  
     100  cha100                   0    1711.09880      54.45070      17.41066      63.08248       100     s54383n17448e         0         0         0         1           sdc        72           tot       1.00000  
     101  cha101                   0     159.93070      54.46462      17.36405      61.69998       101     s54426n17292e         0         0         0         1           res       200           tot       1.00000  
     102  cha102                   0     173.27807      54.47548      17.36284      54.31298       102     s54426n17292e         0         0         0         1           sdc        74           tot       1.00000  
     103  cha103                   0      17.07690      54.48703      17.40134      64.53479       103     s54426n17292e         0         0         0         1           sdc        73           tot       1.00000  
     104  cha104                   0     132.04940      54.50612      17.29019      43.29446       104     s54426n17292e         0         0         0         1           sdc        76           tot       1.00000  
     105  cha105                   0     182.56300      54.66071      17.21578       5.22321       105     s54557n17055e         0         0         0         1           sdc        84           tot       1.00000  
