field.fld: written by SWAT+ editor v2.1.0 on 2026-01-19 18:47 for SWAT+ rev.2.1.4
name                       len            wd           ang  
fld00001             500.00000     100.00000      30.00000  
fld00002             500.00000     100.00000      30.00000  
fld00003             500.00000     100.00000      30.00000  
fld00004             500.00000     100.00000      30.00000  
fld00005             500.00000     100.00000      30.00000  
fld00006             500.00000     100.00000      30.00000  
fld00007             500.00000     100.00000      30.00000  
fld00008             500.00000     100.00000      30.00000  
fld00009             500.00000     100.00000      30.00000  
fld00010             500.00000     100.00000      30.00000  
fld00011             500.00000     100.00000      30.00000  
fld00012             500.00000     100.00000      30.00000  
fld00013             500.00000     100.00000      30.00000  
fld00014             500.00000     100.00000      30.00000  
fld00015             500.00000     100.00000      30.00000  
fld00016             500.00000     100.00000      30.00000  
fld00017             500.00000     100.00000      30.00000  
fld00018             500.00000     100.00000      30.00000  
fld00019             500.00000     100.00000      30.00000  
fld00020             500.00000     100.00000      30.00000  
fld00021             500.00000     100.00000      30.00000  
fld00022             500.00000     100.00000      30.00000  
fld00023             500.00000     100.00000      30.00000  
fld00024             500.00000     100.00000      30.00000  
fld00025             500.00000     100.00000      30.00000  
fld00026             500.00000     100.00000      30.00000  
fld00027             500.00000     100.00000      30.00000  
fld00028             500.00000     100.00000      30.00000  
fld00029             500.00000     100.00000      30.00000  
fld00030             500.00000     100.00000      30.00000  
fld00031             500.00000     100.00000      30.00000  
fld00032             500.00000     100.00000      30.00000  
fld00033             500.00000     100.00000      30.00000  
fld00034             500.00000     100.00000      30.00000  
fld00035             500.00000     100.00000      30.00000  
fld00036             500.00000     100.00000      30.00000  
fld00037             500.00000     100.00000      30.00000  
fld00038             500.00000     100.00000      30.00000  
fld00039             500.00000     100.00000      30.00000  
fld00040             500.00000     100.00000      30.00000  
fld00041             500.00000     100.00000      30.00000  
fld00042             500.00000     100.00000      30.00000  
fld00043             500.00000     100.00000      30.00000  
fld00044             500.00000     100.00000      30.00000  
fld00045             500.00000     100.00000      30.00000  
fld00046             500.00000     100.00000      30.00000  
fld00047             500.00000     100.00000      30.00000  
fld00048             500.00000     100.00000      30.00000  
fld00049             500.00000     100.00000      30.00000  
fld00050             500.00000     100.00000      30.00000  
fld00051             500.00000     100.00000      30.00000  
fld00052             500.00000     100.00000      30.00000  
fld00053             500.00000     100.00000      30.00000  
fld00054             500.00000     100.00000      30.00000  
fld00055             500.00000     100.00000      30.00000  
fld00056             500.00000     100.00000      30.00000  
fld00057             500.00000     100.00000      30.00000  
fld00058             500.00000     100.00000      30.00000  
fld00059             500.00000     100.00000      30.00000  
fld00060             500.00000     100.00000      30.00000  
fld00061             500.00000     100.00000      30.00000  
fld00062             500.00000     100.00000      30.00000  
fld00063             500.00000     100.00000      30.00000  
fld00064             500.00000     100.00000      30.00000  
fld00065             500.00000     100.00000      30.00000  
fld00066             500.00000     100.00000      30.00000  
fld00067             500.00000     100.00000      30.00000  
fld00068             500.00000     100.00000      30.00000  
fld00069             500.00000     100.00000      30.00000  
fld00070             500.00000     100.00000      30.00000  
fld00071             500.00000     100.00000      30.00000  
fld00072             500.00000     100.00000      30.00000  
fld00073             500.00000     100.00000      30.00000  
fld00074             500.00000     100.00000      30.00000  
fld00075             500.00000     100.00000      30.00000  
fld00076             500.00000     100.00000      30.00000  
fld00077             500.00000     100.00000      30.00000  
fld00078             500.00000     100.00000      30.00000  
fld00079             500.00000     100.00000      30.00000  
fld00080             500.00000     100.00000      30.00000  
fld00081             500.00000     100.00000      30.00000  
fld00082             500.00000     100.00000      30.00000  
fld00083             500.00000     100.00000      30.00000  
fld00084             500.00000     100.00000      30.00000  
fld00085             500.00000     100.00000      30.00000  
fld00086             500.00000     100.00000      30.00000  
fld00087             500.00000     100.00000      30.00000  
fld00088             500.00000     100.00000      30.00000  
fld00089             500.00000     100.00000      30.00000  
fld00090             500.00000     100.00000      30.00000  
fld00091             500.00000     100.00000      30.00000  
fld00092             500.00000     100.00000      30.00000  
fld00093             500.00000     100.00000      30.00000  
fld00094             500.00000     100.00000      30.00000  
fld00095             500.00000     100.00000      30.00000  
fld00096             500.00000     100.00000      30.00000  
fld00097             500.00000     100.00000      30.00000  
fld00098             500.00000     100.00000      30.00000  
fld00099             500.00000     100.00000      30.00000  
fld00100             500.00000     100.00000      30.00000  
fld00101             500.00000     100.00000      30.00000  
fld00102             500.00000     100.00000      30.00000  
fld00103             500.00000     100.00000      30.00000  
fld00104             500.00000     100.00000      30.00000  
fld00105             500.00000     100.00000      30.00000  
fld00106             500.00000     100.00000      30.00000  
fld00107             500.00000     100.00000      30.00000  
fld00108             500.00000     100.00000      30.00000  
fld00109             500.00000     100.00000      30.00000  
fld00110             500.00000     100.00000      30.00000  
fld00111             500.00000     100.00000      30.00000  
fld00112             500.00000     100.00000      30.00000  
fld00113             500.00000     100.00000      30.00000  
fld00114             500.00000     100.00000      30.00000  
fld00115             500.00000     100.00000      30.00000  
fld00116             500.00000     100.00000      30.00000  
fld00117             500.00000     100.00000      30.00000  
fld00118             500.00000     100.00000      30.00000  
fld00119             500.00000     100.00000      30.00000  
fld00120             500.00000     100.00000      30.00000  
fld00121             500.00000     100.00000      30.00000  
fld00122             500.00000     100.00000      30.00000  
fld00123             500.00000     100.00000      30.00000  
fld00124             500.00000     100.00000      30.00000  
fld00125             500.00000     100.00000      30.00000  
fld00126             500.00000     100.00000      30.00000  
fld00127             500.00000     100.00000      30.00000  
fld00128             500.00000     100.00000      30.00000  
fld00129             500.00000     100.00000      30.00000  
fld00130             500.00000     100.00000      30.00000  
fld00131             500.00000     100.00000      30.00000  
fld00132             500.00000     100.00000      30.00000  
fld00133             500.00000     100.00000      30.00000  
fld00134             500.00000     100.00000      30.00000  
fld00135             500.00000     100.00000      30.00000  
fld00136             500.00000     100.00000      30.00000  
fld00137             500.00000     100.00000      30.00000  
fld00138             500.00000     100.00000      30.00000  
fld00139             500.00000     100.00000      30.00000  
fld00140             500.00000     100.00000      30.00000  
fld00141             500.00000     100.00000      30.00000  
fld00142             500.00000     100.00000      30.00000  
fld00143             500.00000     100.00000      30.00000  
fld00144             500.00000     100.00000      30.00000  
fld00145             500.00000     100.00000      30.00000  
fld00146             500.00000     100.00000      30.00000  
fld00147             500.00000     100.00000      30.00000  
fld00148             500.00000     100.00000      30.00000  
fld00149             500.00000     100.00000      30.00000  
fld00150             500.00000     100.00000      30.00000  
fld00151             500.00000     100.00000      30.00000  
fld00152             500.00000     100.00000      30.00000  
fld00153             500.00000     100.00000      30.00000  
fld00154             500.00000     100.00000      30.00000  
fld00155             500.00000     100.00000      30.00000  
fld00156             500.00000     100.00000      30.00000  
fld00157             500.00000     100.00000      30.00000  
fld00158             500.00000     100.00000      30.00000  
fld00159             500.00000     100.00000      30.00000  
fld00160             500.00000     100.00000      30.00000  
fld00161             500.00000     100.00000      30.00000  
fld00162             500.00000     100.00000      30.00000  
fld00163             500.00000     100.00000      30.00000  
fld00164             500.00000     100.00000      30.00000  
fld00165             500.00000     100.00000      30.00000  
fld00166             500.00000     100.00000      30.00000  
fld00167             500.00000     100.00000      30.00000  
fld00168             500.00000     100.00000      30.00000  
fld00169             500.00000     100.00000      30.00000  
fld00170             500.00000     100.00000      30.00000  
fld00171             500.00000     100.00000      30.00000  
fld00172             500.00000     100.00000      30.00000  
fld00173             500.00000     100.00000      30.00000  
fld00174             500.00000     100.00000      30.00000  
fld00175             500.00000     100.00000      30.00000  
fld00176             500.00000     100.00000      30.00000  
fld00177             500.00000     100.00000      30.00000  
fld00178             500.00000     100.00000      30.00000  
fld00179             500.00000     100.00000      30.00000  
fld00180             500.00000     100.00000      30.00000  
fld00181             500.00000     100.00000      30.00000  
fld00182             500.00000     100.00000      30.00000  
fld00183             500.00000     100.00000      30.00000  
fld00184             500.00000     100.00000      30.00000  
fld00185             500.00000     100.00000      30.00000  
fld00186             500.00000     100.00000      30.00000  
fld00187             500.00000     100.00000      30.00000  
fld00188             500.00000     100.00000      30.00000  
fld00189             500.00000     100.00000      30.00000  
fld00190             500.00000     100.00000      30.00000  
fld00191             500.00000     100.00000      30.00000  
fld00192             500.00000     100.00000      30.00000  
fld00193             500.00000     100.00000      30.00000  
fld00194             500.00000     100.00000      30.00000  
fld00195             500.00000     100.00000      30.00000  
fld00196             500.00000     100.00000      30.00000  
fld00197             500.00000     100.00000      30.00000  
fld00198             500.00000     100.00000      30.00000  
fld00199             500.00000     100.00000      30.00000  
fld00200             500.00000     100.00000      30.00000  
fld00201             500.00000     100.00000      30.00000  
fld00202             500.00000     100.00000      30.00000  
fld00203             500.00000     100.00000      30.00000  
fld00204             500.00000     100.00000      30.00000  
fld00205             500.00000     100.00000      30.00000  
fld00206             500.00000     100.00000      30.00000  
fld00207             500.00000     100.00000      30.00000  
fld00208             500.00000     100.00000      30.00000  
fld00209             500.00000     100.00000      30.00000  
fld00210             500.00000     100.00000      30.00000  
fld00211             500.00000     100.00000      30.00000  
fld00212             500.00000     100.00000      30.00000  
fld00213             500.00000     100.00000      30.00000  
fld00214             500.00000     100.00000      30.00000  
fld00215             500.00000     100.00000      30.00000  
fld00216             500.00000     100.00000      30.00000  
fld00217             500.00000     100.00000      30.00000  
fld00218             500.00000     100.00000      30.00000  
fld00219             500.00000     100.00000      30.00000  
fld00220             500.00000     100.00000      30.00000  
fld00221             500.00000     100.00000      30.00000  
fld00222             500.00000     100.00000      30.00000  
fld00223             500.00000     100.00000      30.00000  
fld00224             500.00000     100.00000      30.00000  
fld00225             500.00000     100.00000      30.00000  
fld00226             500.00000     100.00000      30.00000  
fld00227             500.00000     100.00000      30.00000  
fld00228             500.00000     100.00000      30.00000  
fld00229             500.00000     100.00000      30.00000  
fld00230             500.00000     100.00000      30.00000  
fld00231             500.00000     100.00000      30.00000  
fld00232             500.00000     100.00000      30.00000  
fld00233             500.00000     100.00000      30.00000  
fld00234             500.00000     100.00000      30.00000  
fld00235             500.00000     100.00000      30.00000  
fld00236             500.00000     100.00000      30.00000  
fld00237             500.00000     100.00000      30.00000  
fld00238             500.00000     100.00000      30.00000  
fld00239             500.00000     100.00000      30.00000  
fld00240             500.00000     100.00000      30.00000  
fld00241             500.00000     100.00000      30.00000  
fld00242             500.00000     100.00000      30.00000  
fld00243             500.00000     100.00000      30.00000  
fld00244             500.00000     100.00000      30.00000  
fld00245             500.00000     100.00000      30.00000  
fld00246             500.00000     100.00000      30.00000  
fld00247             500.00000     100.00000      30.00000  
fld00248             500.00000     100.00000      30.00000  
fld00249             500.00000     100.00000      30.00000  
fld00250             500.00000     100.00000      30.00000  
fld00251             500.00000     100.00000      30.00000  
fld00252             500.00000     100.00000      30.00000  
fld00253             500.00000     100.00000      30.00000  
fld00254             500.00000     100.00000      30.00000  
fld00255             500.00000     100.00000      30.00000  
fld00256             500.00000     100.00000      30.00000  
fld00257             500.00000     100.00000      30.00000  
fld00258             500.00000     100.00000      30.00000  
fld00259             500.00000     100.00000      30.00000  
fld00260             500.00000     100.00000      30.00000  
fld00261             500.00000     100.00000      30.00000  
fld00262             500.00000     100.00000      30.00000  
fld00263             500.00000     100.00000      30.00000  
fld00264             500.00000     100.00000      30.00000  
fld00265             500.00000     100.00000      30.00000  
fld00266             500.00000     100.00000      30.00000  
fld00267             500.00000     100.00000      30.00000  
fld00268             500.00000     100.00000      30.00000  
fld00269             500.00000     100.00000      30.00000  
fld00270             500.00000     100.00000      30.00000  
fld00271             500.00000     100.00000      30.00000  
fld00272             500.00000     100.00000      30.00000  
fld00273             500.00000     100.00000      30.00000  
fld00274             500.00000     100.00000      30.00000  
fld00275             500.00000     100.00000      30.00000  
fld00276             500.00000     100.00000      30.00000  
fld00277             500.00000     100.00000      30.00000  
fld00278             500.00000     100.00000      30.00000  
fld00279             500.00000     100.00000      30.00000  
fld00280             500.00000     100.00000      30.00000  
fld00281             500.00000     100.00000      30.00000  
fld00282             500.00000     100.00000      30.00000  
fld00283             500.00000     100.00000      30.00000  
fld00284             500.00000     100.00000      30.00000  
fld00285             500.00000     100.00000      30.00000  
fld00286             500.00000     100.00000      30.00000  
fld00287             500.00000     100.00000      30.00000  
fld00288             500.00000     100.00000      30.00000  
fld00289             500.00000     100.00000      30.00000  
fld00290             500.00000     100.00000      30.00000  
fld00291             500.00000     100.00000      30.00000  
fld00292             500.00000     100.00000      30.00000  
fld00293             500.00000     100.00000      30.00000  
fld00294             500.00000     100.00000      30.00000  
fld00295             500.00000     100.00000      30.00000  
fld00296             500.00000     100.00000      30.00000  
fld00297             500.00000     100.00000      30.00000  
fld00298             500.00000     100.00000      30.00000  
fld00299             500.00000     100.00000      30.00000  
fld00300             500.00000     100.00000      30.00000  
fld00301             500.00000     100.00000      30.00000  
fld00302             500.00000     100.00000      30.00000  
fld00303             500.00000     100.00000      30.00000  
fld00304             500.00000     100.00000      30.00000  
fld00305             500.00000     100.00000      30.00000  
fld00306             500.00000     100.00000      30.00000  
fld00307             500.00000     100.00000      30.00000  
fld00308             500.00000     100.00000      30.00000  
fld00309             500.00000     100.00000      30.00000  
fld00310             500.00000     100.00000      30.00000  
fld00311             500.00000     100.00000      30.00000  
fld00312             500.00000     100.00000      30.00000  
fld00313             500.00000     100.00000      30.00000  
fld00314             500.00000     100.00000      30.00000  
fld00315             500.00000     100.00000      30.00000  
fld00316             500.00000     100.00000      30.00000  
fld00317             500.00000     100.00000      30.00000  
fld00318             500.00000     100.00000      30.00000  
fld00319             500.00000     100.00000      30.00000  
fld00320             500.00000     100.00000      30.00000  
fld00321             500.00000     100.00000      30.00000  
fld00322             500.00000     100.00000      30.00000  
fld00323             500.00000     100.00000      30.00000  
fld00324             500.00000     100.00000      30.00000  
fld00325             500.00000     100.00000      30.00000  
fld00326             500.00000     100.00000      30.00000  
fld00327             500.00000     100.00000      30.00000  
fld00328             500.00000     100.00000      30.00000  
fld00329             500.00000     100.00000      30.00000  
fld00330             500.00000     100.00000      30.00000  
fld00331             500.00000     100.00000      30.00000  
fld00332             500.00000     100.00000      30.00000  
fld00333             500.00000     100.00000      30.00000  
fld00334             500.00000     100.00000      30.00000  
fld00335             500.00000     100.00000      30.00000  
fld00336             500.00000     100.00000      30.00000  
fld00337             500.00000     100.00000      30.00000  
fld00338             500.00000     100.00000      30.00000  
fld00339             500.00000     100.00000      30.00000  
fld00340             500.00000     100.00000      30.00000  
fld00341             500.00000     100.00000      30.00000  
fld00342             500.00000     100.00000      30.00000  
fld00343             500.00000     100.00000      30.00000  
fld00344             500.00000     100.00000      30.00000  
fld00345             500.00000     100.00000      30.00000  
fld00346             500.00000     100.00000      30.00000  
fld00347             500.00000     100.00000      30.00000  
fld00348             500.00000     100.00000      30.00000  
fld00349             500.00000     100.00000      30.00000  
fld00350             500.00000     100.00000      30.00000  
fld00351             500.00000     100.00000      30.00000  
fld00352             500.00000     100.00000      30.00000  
fld00353             500.00000     100.00000      30.00000  
fld00354             500.00000     100.00000      30.00000  
fld00355             500.00000     100.00000      30.00000  
fld00356             500.00000     100.00000      30.00000  
fld00357             500.00000     100.00000      30.00000  
fld00358             500.00000     100.00000      30.00000  
fld00359             500.00000     100.00000      30.00000  
fld00360             500.00000     100.00000      30.00000  
fld00361             500.00000     100.00000      30.00000  
fld00362             500.00000     100.00000      30.00000  
fld00363             500.00000     100.00000      30.00000  
fld00364             500.00000     100.00000      30.00000  
fld00365             500.00000     100.00000      30.00000  
fld00366             500.00000     100.00000      30.00000  
fld00367             500.00000     100.00000      30.00000  
fld00368             500.00000     100.00000      30.00000  
fld00369             500.00000     100.00000      30.00000  
fld00370             500.00000     100.00000      30.00000  
fld00371             500.00000     100.00000      30.00000  
fld00372             500.00000     100.00000      30.00000  
fld00373             500.00000     100.00000      30.00000  
fld00374             500.00000     100.00000      30.00000  
fld00375             500.00000     100.00000      30.00000  
fld00376             500.00000     100.00000      30.00000  
fld00377             500.00000     100.00000      30.00000  
fld00378             500.00000     100.00000      30.00000  
fld00379             500.00000     100.00000      30.00000  
fld00380             500.00000     100.00000      30.00000  
fld00381             500.00000     100.00000      30.00000  
fld00382             500.00000     100.00000      30.00000  
fld00383             500.00000     100.00000      30.00000  
fld00384             500.00000     100.00000      30.00000  
fld00385             500.00000     100.00000      30.00000  
fld00386             500.00000     100.00000      30.00000  
fld00387             500.00000     100.00000      30.00000  
fld00388             500.00000     100.00000      30.00000  
fld00389             500.00000     100.00000      30.00000  
fld00390             500.00000     100.00000      30.00000  
fld00391             500.00000     100.00000      30.00000  
fld00392             500.00000     100.00000      30.00000  
fld00393             500.00000     100.00000      30.00000  
fld00394             500.00000     100.00000      30.00000  
fld00395             500.00000     100.00000      30.00000  
fld00396             500.00000     100.00000      30.00000  
fld00397             500.00000     100.00000      30.00000  
fld00398             500.00000     100.00000      30.00000  
fld00399             500.00000     100.00000      30.00000  
fld00400             500.00000     100.00000      30.00000  
fld00401             500.00000     100.00000      30.00000  
fld00402             500.00000     100.00000      30.00000  
fld00403             500.00000     100.00000      30.00000  
fld00404             500.00000     100.00000      30.00000  
fld00405             500.00000     100.00000      30.00000  
fld00406             500.00000     100.00000      30.00000  
fld00407             500.00000     100.00000      30.00000  
fld00408             500.00000     100.00000      30.00000  
fld00409             500.00000     100.00000      30.00000  
fld00410             500.00000     100.00000      30.00000  
fld00411             500.00000     100.00000      30.00000  
fld00412             500.00000     100.00000      30.00000  
fld00413             500.00000     100.00000      30.00000  
fld00414             500.00000     100.00000      30.00000  
fld00415             500.00000     100.00000      30.00000  
fld00416             500.00000     100.00000      30.00000  
fld00417             500.00000     100.00000      30.00000  
fld00418             500.00000     100.00000      30.00000  
fld00419             500.00000     100.00000      30.00000  
fld00420             500.00000     100.00000      30.00000  
fld00421             500.00000     100.00000      30.00000  
fld00422             500.00000     100.00000      30.00000  
fld00423             500.00000     100.00000      30.00000  
fld00424             500.00000     100.00000      30.00000  
fld00425             500.00000     100.00000      30.00000  
fld00426             500.00000     100.00000      30.00000  
fld00427             500.00000     100.00000      30.00000  
fld00428             500.00000     100.00000      30.00000  
fld00429             500.00000     100.00000      30.00000  
fld00430             500.00000     100.00000      30.00000  
fld00431             500.00000     100.00000      30.00000  
fld00432             500.00000     100.00000      30.00000  
fld00433             500.00000     100.00000      30.00000  
fld00434             500.00000     100.00000      30.00000  
fld00435             500.00000     100.00000      30.00000  
fld00436             500.00000     100.00000      30.00000  
fld00437             500.00000     100.00000      30.00000  
fld00438             500.00000     100.00000      30.00000  
fld00439             500.00000     100.00000      30.00000  
fld00440             500.00000     100.00000      30.00000  
fld00441             500.00000     100.00000      30.00000  
fld00442             500.00000     100.00000      30.00000  
fld00443             500.00000     100.00000      30.00000  
fld00444             500.00000     100.00000      30.00000  
fld00445             500.00000     100.00000      30.00000  
fld00446             500.00000     100.00000      30.00000  
fld00447             500.00000     100.00000      30.00000  
fld00448             500.00000     100.00000      30.00000  
fld00449             500.00000     100.00000      30.00000  
fld00450             500.00000     100.00000      30.00000  
fld00451             500.00000     100.00000      30.00000  
fld00452             500.00000     100.00000      30.00000  
fld00453             500.00000     100.00000      30.00000  
fld00454             500.00000     100.00000      30.00000  
fld00455             500.00000     100.00000      30.00000  
fld00456             500.00000     100.00000      30.00000  
fld00457             500.00000     100.00000      30.00000  
fld00458             500.00000     100.00000      30.00000  
fld00459             500.00000     100.00000      30.00000  
fld00460             500.00000     100.00000      30.00000  
fld00461             500.00000     100.00000      30.00000  
fld00462             500.00000     100.00000      30.00000  
fld00463             500.00000     100.00000      30.00000  
fld00464             500.00000     100.00000      30.00000  
fld00465             500.00000     100.00000      30.00000  
fld00466             500.00000     100.00000      30.00000  
fld00467             500.00000     100.00000      30.00000  
fld00468             500.00000     100.00000      30.00000  
fld00469             500.00000     100.00000      30.00000  
fld00470             500.00000     100.00000      30.00000  
fld00471             500.00000     100.00000      30.00000  
fld00472             500.00000     100.00000      30.00000  
fld00473             500.00000     100.00000      30.00000  
fld00474             500.00000     100.00000      30.00000  
fld00475             500.00000     100.00000      30.00000  
fld00476             500.00000     100.00000      30.00000  
fld00477             500.00000     100.00000      30.00000  
fld00478             500.00000     100.00000      30.00000  
fld00479             500.00000     100.00000      30.00000  
fld00480             500.00000     100.00000      30.00000  
fld00481             500.00000     100.00000      30.00000  
fld00482             500.00000     100.00000      30.00000  
fld00483             500.00000     100.00000      30.00000  
fld00484             500.00000     100.00000      30.00000  
fld00485             500.00000     100.00000      30.00000  
fld00486             500.00000     100.00000      30.00000  
fld00487             500.00000     100.00000      30.00000  
fld00488             500.00000     100.00000      30.00000  
fld00489             500.00000     100.00000      30.00000  