hru.con: written by SWAT+ editor v2.1.0 on 2026-01-19 18:46 for SWAT+ rev.2.1.4
      id  name                gis_id          area           lat           lon          elev       hru               wst       cst      ovfl      rule   out_tot  
       1  hru00001                 0       2.82425      54.25113      17.67722     186.92768         1      s5425n17606e         0         0         0         0  
       2  hru00002                 0       0.79238      54.25218      17.66995     181.65953         2      s5425n17606e         0         0         0         0  
       3  hru00003                 0       2.72767      54.25230      17.67352     187.53612         3      s5425n17606e         0         0         0         0  
       4  hru00004                 0       0.60064      54.25436      17.69968     200.16505         4      s54251n1776e         0         0         0         0  
       5  hru00005                 0       3.90140      54.25867      17.61733     122.20954         5      s5425n17606e         0         0         0         0  
       6  hru00006                 0       3.39339      54.26514      17.65157     154.61701         6      s5425n17606e         0         0         0         0  
       7  hru00007                 0       0.31247      54.26787      17.66995     173.39142         7      s5425n17606e         0         0         0         0  
       8  hru00008                 0       3.75104      54.26981      17.59341     114.73166         8      s5425n17606e         0         0         0         0  
       9  hru00009                 0       0.59939      54.27271      17.68484     179.62989         9      s54251n1776e         0         0         0         0  
      10  hru00010                 0       2.33632      54.27715      17.60422     115.01204        10      s5425n17606e         0         0         0         0  
      11  hru00011                 0       1.58734      54.27868      17.57346     129.08704        11     s54294n17528e         0         0         0         0  
      12  hru00012                 0       4.53544      54.28002      17.69748     202.56189        12     s54296n17759e         0         0         0         0  
      13  hru00013                 0       0.73276      54.28200      17.67325     175.93117        13      s5425n17606e         0         0         0         0  
      14  hru00014                 0       0.48462      54.28136      17.63135     138.74415        14      s5425n17606e         0         0         0         0  
      15  hru00015                 0       3.59862      54.28222      17.60652     114.40732        15      s5425n17606e         0         0         0         0  
      16  hru00016                 0       0.70942      54.28683      17.68827     172.03958        16     s54296n17759e         0         0         0         0  
      17  hru00017                 0       0.63641      54.28784      17.69113     178.08331        17     s54296n17759e         0         0         0         0  
      18  hru00018                 0       2.14133      54.28946      17.69211     186.07921        18     s54296n17759e         0         0         0         0  
      19  hru00019                 0       8.79986      54.28586      17.60615     119.37901        19      s5425n17606e         0         0         0         0  
      20  hru00020                 0       1.19958      54.28985      17.60957     114.20233        20      s5425n17606e         0         0         0         0  
      21  hru00021                 0       0.71956      54.29129      17.61243     115.04982        21      s5425n17606e         0         0         0         0  
      22  hru00022                 0       0.34507      54.29211      17.61508     115.57685        22      s5425n17606e         0         0         0         0  
      23  hru00023                 0       1.45244      54.29382      17.61352     115.16375        23      s5425n17606e         0         0         0         0  
      24  hru00024                 0       0.57060      54.29627      17.61285     114.08456        24      s5425n17606e         0         0         0         0  
      25  hru00025                 0       0.54663      54.29892      17.68845     181.50844        25     s54296n17759e         0         0         0         0  
      26  hru00026                 0       7.71941      54.29721      17.62355     126.52512        26      s5425n17606e         0         0         0         0  
      27  hru00027                 0       0.78824      54.29848      17.61458     115.42697        27      s5425n17606e         0         0         0         0  
      28  hru00028                 0       0.68090      54.29474      17.57392     137.05474        28     s54294n17528e         0         0         0         0  
      29  hru00029                 0      33.05767      54.29426      17.58197     139.83261        29     s54294n17528e         0         0         0         0  
      30  hru00030                 0       0.42672      54.30115      17.67768     153.64319        30     s54296n17759e         0         0         0         0  
      31  hru00031                 0       5.48992      54.30159      17.72078     201.44689        31     s54296n17759e         0         0         0         0  
      32  hru00032                 0       0.48451      54.30217      17.58293     141.78676        32     s54294n17528e         0         0         0         0  
      33  hru00033                 0       1.73697      54.30130      17.58891     146.88927        33     s54294n17528e         0         0         0         0  
      34  hru00034                 0       1.67802      54.30308      17.58524     142.85983        34     s54294n17528e         0         0         0         0  
      35  hru00035                 0       1.26134      54.30685      17.69423     198.39807        35     s54296n17759e         0         0         0         0  
      36  hru00036                 0       3.29930      54.30667      17.70701     191.38737        36     s54296n17759e         0         0         0         0  
      37  hru00037                 0      19.55584      54.30215      17.68732     166.87323        37     s54296n17759e         0         0         0         0  
      38  hru00038                 0       0.64992      54.30665      17.57772     134.36400        38     s54294n17528e         0         0         0         0  
      39  hru00039                 0       2.26156      54.30961      17.67880     150.73178        39     s54296n17759e         0         0         0         0  
      40  hru00040                 0       0.58255      54.31350      17.68030     152.17005        40     s54296n17759e         0         0         0         0  
      41  hru00041                 0       2.60340      54.31493      17.66018     160.61351        41     s54296n17759e         0         0         0         0  
      42  hru00042                 0       0.98373      54.31485      17.62502     122.33214        42     s54294n17528e         0         0         0         0  
      43  hru00043                 0       0.61749      54.31843      17.94754     244.62885        43     s54297n17835e         0         0         0         0  
      44  hru00044                 0       0.86558      54.31688      17.69026     161.28604        44     s54296n17759e         0         0         0         0  
      45  hru00045                 0       2.22766      54.31598      17.62186     114.73888        45     s54294n17528e         0         0         0         0  
      46  hru00046                 0       1.44819      54.32008      17.93968     236.82592        46     s54297n17835e         0         0         0         0  
      47  hru00047                 0       1.15534      54.32076      17.93629     239.06732        47     s54297n17835e         0         0         0         0  
      48  hru00048                 0       0.60733      54.32108      17.95068     245.99602        48     s54297n17835e         0         0         0         0  
      49  hru00049                 0       4.92036      54.31875      17.62197     116.22092        49     s54339n17526e         0         0         0         0  
      50  hru00050                 0       0.33632      54.32298      17.88440     202.79726        50     s54297n17835e         0         0         0         0  
      51  hru00051                 0       1.89205      54.32282      17.87895     197.14991        51     s54297n17835e         0         0         0         0  
      52  hru00052                 0       0.32518      54.32046      17.61732     116.27489        52     s54339n17526e         0         0         0         0  
      53  hru00053                 0      21.25320      54.32008      17.71787     191.43840        53     s54296n17759e         0         0         0         0  
      54  hru00054                 0       2.25682      54.32171      17.62032     120.05236        54     s54339n17526e         0         0         0         0  
      55  hru00055                 0       2.10472      54.32527      17.93128     225.94241        55     s54297n17835e         0         0         0         0  
      56  hru00056                 0       0.70079      54.32531      17.88871     197.45323        56     s54297n17835e         0         0         0         0  
      57  hru00057                 0       0.50471      54.32614      17.88461     193.46396        57     s54297n17835e         0         0         0         0  
      58  hru00058                 0       0.60790      54.32662      17.92574     206.78612        58     s54297n17835e         0         0         0         0  
      59  hru00059                 0       2.77168      54.32600      17.89477     201.51986        59     s54297n17835e         0         0         0         0  
      60  hru00060                 0       0.82620      54.32664      17.92852     219.28600        60     s54297n17835e         0         0         0         0  
      61  hru00061                 0       0.71428      54.32572      17.66379     148.58390        61     s54296n17759e         0         0         0         0  
      62  hru00062                 0       0.46341      54.32899      17.93894     213.18454        62     s54297n17835e         0         0         0         0  
      63  hru00063                 0       0.99455      54.32888      17.92987     215.75002        63     s54297n17835e         0         0         0         0  
      64  hru00064                 0       3.15935      54.32769      17.84058     204.96609        64     s54297n17835e         0         0         0         0  
      65  hru00065                 0       0.93941      54.32951      17.91717     205.27059        65     s54297n17835e         0         0         0         0  
      66  hru00066                 0       0.48404      54.32711      17.58275     149.67393        66     s54339n17526e         0         0         0         0  
      67  hru00067                 0       0.34533      54.32806      17.59128     145.73480        67     s54339n17526e         0         0         0         0  
      68  hru00068                 0       2.04728      54.33009      17.89319     187.92458        68     s54297n17835e         0         0         0         0  
      69  hru00069                 0       0.56557      54.32562      17.89923     201.05635        69     s54297n17835e         0         0         0         0  
      70  hru00070                 0       5.89060      54.32698      17.89878     200.24022        70     s54297n17835e         0         0         0         0  
      71  hru00071                 0      10.22552      54.33022      17.89889     197.38455        71     s54297n17835e         0         0         0         0  
      72  hru00072                 0       2.33478      54.33198      17.90759     203.47243        72     s54297n17835e         0         0         0         0  
      73  hru00073                 0       2.59673      54.33330      17.65155     135.14567        73     s54296n17759e         0         0         0         0  
      74  hru00074                 0       3.12655      54.33454      17.70131     181.17336        74     s54296n17759e         0         0         0         0  
      75  hru00075                 0       0.33242      54.33820      17.88447     234.16614        75     s54297n17835e         0         0         0         0  
      76  hru00076                 0       0.62312      54.33701      17.73615     183.12603        76     s54296n17759e         0         0         0         0  
      77  hru00077                 0       0.95647      54.33782      17.84385     182.73809        77     s54297n17835e         0         0         0         0  
      78  hru00078                 0       2.23061      54.33791      17.63270     127.51738        78     s54339n17526e         0         0         0         0  
      79  hru00079                 0       0.65244      54.34113      17.84714     179.95846        79     s54297n17835e         0         0         0         0  
      80  hru00080                 0       2.53607      54.34196      17.93227     207.92648        80     s54297n17835e         0         0         0         0  
      81  hru00081                 0       0.41621      54.34394      17.89140     226.48723        81     s54297n17835e         0         0         0         0  
      82  hru00082                 0       9.75169      54.33911      17.60459     131.96253        82     s54339n17526e         0         0         0         0  
      83  hru00083                 0       0.69204      54.34211      17.62798     114.25763        83     s54339n17526e         0         0         0         0  
      84  hru00084                 0       6.61506      54.34437      17.85088     185.25599        84     s54297n17835e         0         0         0         0  
      85  hru00085                 0       0.66918      54.34349      17.59726     141.94089        85     s54339n17526e         0         0         0         0  
      86  hru00086                 0       0.40603      54.34947      17.71137     171.10463        86     s54296n17759e         0         0         0         0  
      87  hru00087                 0       7.40220      54.34729      17.65886     150.90063        87     s54296n17759e         0         0         0         0  
      88  hru00088                 0      13.73061      54.34978      17.74625     163.02435        88     s54296n17759e         0         0         0         0  
      89  hru00089                 0      12.55058      54.34311      17.74894     172.57487        89     s54296n17759e         0         0         0         0  
      90  hru00090                 0       0.35626      54.35077      17.70854     167.97561        90     s54296n17759e         0         0         0         0  
      91  hru00091                 0       3.30962      54.35150      17.70788     159.80553        91     s54296n17759e         0         0         0         0  
      92  hru00092                 0       4.11617      54.35266      17.58510     151.05661        92     s54339n17526e         0         0         0         0  
      93  hru00093                 0       0.59230      54.35836      17.93825     220.70428        93     s54297n17835e         0         0         0         0  
      94  hru00094                 0       1.45709      54.35499      17.57676     146.96053        94     s54339n17526e         0         0         0         0  
      95  hru00095                 0       0.94652      54.36006      17.86768     187.43706        95     s54297n17835e         0         0         0         0  
      96  hru00096                 0       0.93904      54.36071      17.86519     187.86687        96     s54297n17835e         0         0         0         0  
      97  hru00097                 0       3.91333      54.35781      17.64523     124.40971        97     s54339n17526e         0         0         0         0  
      98  hru00098                 0       0.42904      54.36218      17.86653     183.22782        98     s54297n17835e         0         0         0         0  
      99  hru00099                 0       9.29353      54.35859      17.75358     171.42574        99     s54296n17759e         0         0         0         0  
     100  hru00100                 0       0.99066      54.36427      17.89538     193.22452       100     s54297n17835e         0         0         0         0  
     101  hru00101                 0       2.85069      54.36259      17.69277     154.81593       101     s54296n17759e         0         0         0         0  
     102  hru00102                 0       1.19458      54.36252      17.57750     124.32296       102     s54339n17526e         0         0         0         0  
     103  hru00103                 0       0.32024      54.36552      17.94981     223.14178       103     s54297n17835e         0         0         0         0  
     104  hru00104                 0       0.43279      54.36657      17.80356     174.10925       104     s54297n17835e         0         0         0         0  
     105  hru00105                 0       2.82520      54.36769      17.86763     174.40183       105     s54297n17835e         0         0         0         0  
     106  hru00106                 0       0.34499      54.36788      17.77696     173.11448       106     s54296n17759e         0         0         0         0  
     107  hru00107                 0       0.73261      54.36874      17.85460     168.00890       107     s54297n17835e         0         0         0         0  
     108  hru00108                 0       3.59817      54.36784      17.76769     179.31075       108     s54296n17759e         0         0         0         0  
     109  hru00109                 0       3.87894      54.36942      17.76487     178.85638       109     s54296n17759e         0         0         0         0  
     110  hru00110                 0       0.33751      54.37174      17.80631     176.22560       110     s54297n17835e         0         0         0         0  
     111  hru00111                 0       0.47194      54.37160      17.83051     183.11789       111     s54297n17835e         0         0         0         0  
     112  hru00112                 0       7.46009      54.36825      17.51210     121.32214       112     s54339n17526e         0         0         0         0  
     113  hru00113                 0       0.32341      54.37107      17.63916     119.72851       113     s54339n17526e         0         0         0         0  
     114  hru00114                 0       0.75700      54.37314      17.83785     181.05770       114     s54297n17835e         0         0         0         0  
     115  hru00115                 0       1.98706      54.37213      17.63866     124.60170       115     s54339n17526e         0         0         0         0  
     116  hru00116                 0       1.68479      54.37433      17.76274     172.57990       116     s54296n17759e         0         0         0         0  
     117  hru00117                 0       4.92910      54.37437      17.89083     185.60131       117     s54297n17835e         0         0         0         0  
     118  hru00118                 0       2.40839      54.37438      17.75630     168.44210       118     s54296n17759e         0         0         0         0  
     119  hru00119                 0       3.39503      54.37206      17.50172     111.61771       119     s54383n17448e         0         0         0         0  
     120  hru00120                 0       0.66741      54.37465      17.49916     106.85588       120     s54383n17448e         0         0         0         0  
     121  hru00121                 0       2.38419      54.37666      17.71369     162.73583       121     s54296n17759e         0         0         0         0  
     122  hru00122                 0       6.92404      54.37639      17.62721     115.73315       122     s54339n17526e         0         0         0         0  
     123  hru00123                 0       3.56544      54.37751      17.75319     174.55674       123     s54296n17759e         0         0         0         0  
     124  hru00124                 0       1.34094      54.37985      17.89544     188.55366       124     s54297n17835e         0         0         0         0  
     125  hru00125                 0       0.47590      54.37468      17.50034     100.90213       125     s54383n17448e         0         0         0         0  
     126  hru00126                 0       0.81594      54.38094      17.82746     173.72013       126     s54297n17835e         0         0         0         0  
     127  hru00127                 0       2.32205      54.37981      17.67581     163.39759       127     s54339n17526e         0         0         0         0  
     128  hru00128                 0       7.25717      54.38191      17.91831     220.94316       128     s54297n17835e         0         0         0         0  
     129  hru00129                 0       4.81476      54.38014      17.60358     127.14260       129     s54339n17526e         0         0         0         0  
     130  hru00130                 0       0.90145      54.38369      17.89524     184.37683       130     s54297n17835e         0         0         0         0  
     131  hru00131                 0       1.51023      54.38152      17.67688     163.26955       131     s54339n17526e         0         0         0         0  
     132  hru00132                 0       4.78464      54.38022      17.65057     137.18187       132     s54339n17526e         0         0         0         0  
     133  hru00133                 0       0.63193      54.38564      17.86409     161.62926       133     s54297n17835e         0         0         0         0  
     134  hru00134                 0      42.70584      54.38329      17.86357     183.38592       134     s54297n17835e         0         0         0         0  
     135  hru00135                 0       1.47526      54.38523      17.63340     137.70986       135     s54339n17526e         0         0         0         0  
     136  hru00136                 0       2.17664      54.38700      17.78935     161.72341       136     s54296n17759e         0         0         0         0  
     137  hru00137                 0      14.71536      54.38493      17.67991     164.83547       137     s54296n17759e         0         0         0         0  
     138  hru00138                 0       4.25700      54.38713      17.67144     130.62956       138     s54339n17526e         0         0         0         0  
     139  hru00139                 0       0.65335      54.39004      17.78569     159.76456       139     s54296n17759e         0         0         0         0  
     140  hru00140                 0       0.31627      54.39115      17.78535     157.87297       140     s54296n17759e         0         0         0         0  
     141  hru00141                 0       0.54389      54.39205      17.78603     155.05014       141     s54296n17759e         0         0         0         0  
     142  hru00142                 0       4.43567      54.39351      17.76281     150.02415       142     s54296n17759e         0         0         0         0  
     143  hru00143                 0       3.59736      54.39549      17.75602     147.77510       143     s54296n17759e         0         0         0         0  
     144  hru00144                 0       0.53842      54.39714      17.75890     150.08370       144     s54296n17759e         0         0         0         0  
     145  hru00145                 0       1.02804      54.39576      17.37633     100.88476       145     s54383n17448e         0         0         0         0  
     146  hru00146                 0       0.86436      54.40270      17.81831     153.87544       146     s54297n17835e         0         0         0         0  
     147  hru00147                 0       4.57911      54.40395      17.75470     141.68167       147     s54296n17759e         0         0         0         0  
     148  hru00148                 0       8.17958      54.40083      17.47583      76.85300       148     s54383n17448e         0         0         0         0  
     149  hru00149                 0       0.31118      54.40528      17.74063     135.71343       149     s54296n17759e         0         0         0         0  
     150  hru00150                 0       0.32757      54.40753      17.92414     169.26079       150     s54297n17835e         0         0         0         0  
     151  hru00151                 0       1.04899      54.40684      17.83134     154.35219       151     s54297n17835e         0         0         0         0  
     152  hru00152                 0       0.49275      54.40436      17.49024     116.41854       152     s54383n17448e         0         0         0         0  
     153  hru00153                 0       0.54543      54.40480      17.47413     102.29522       153     s54383n17448e         0         0         0         0  
     154  hru00154                 0       6.99908      54.40494      17.46762      76.91604       154     s54383n17448e         0         0         0         0  
     155  hru00155                 0       2.56370      54.40845      17.68739     149.31644       155     s54339n17526e         0         0         0         0  
     156  hru00156                 0       0.66043      54.41203      17.82349     151.90183       156     s54297n17835e         0         0         0         0  
     157  hru00157                 0       0.34541      54.40919      17.48365     100.43073       157     s54383n17448e         0         0         0         0  
     158  hru00158                 0       1.67067      54.40903      17.49529     111.51491       158     s54383n17448e         0         0         0         0  
     159  hru00159                 0       0.87887      54.41386      17.89584     158.70762       159     s54297n17835e         0         0         0         0  
     160  hru00160                 0       3.10073      54.41374      17.84109     162.58608       160     s54297n17835e         0         0         0         0  
     161  hru00161                 0       3.96572      54.41277      17.88357     163.35990       161     s54297n17835e         0         0         0         0  
     162  hru00162                 0       5.62553      54.41407      17.88830     163.94320       162     s54297n17835e         0         0         0         0  
     163  hru00163                 0      34.07897      54.41296      17.86119     160.61641       163     s54297n17835e         0         0         0         0  
     164  hru00164                 0       2.70757      54.41430      17.85245     153.42715       164     s54297n17835e         0         0         0         0  
     165  hru00165                 0      16.90164      54.41341      17.84504     159.87650       165     s54297n17835e         0         0         0         0  
     166  hru00166                 0       1.19583      54.41717      17.88858     163.78938       166     s54297n17835e         0         0         0         0  
     167  hru00167                 0       0.76729      54.41761      17.89048     163.75914       167     s54297n17835e         0         0         0         0  
     168  hru00168                 0       2.67305      54.41564      17.73726     151.59807       168     s54296n17759e         0         0         0         0  
     169  hru00169                 0       4.34009      54.41813      17.93525     163.59953       169     s54297n17835e         0         0         0         0  
     170  hru00170                 0       7.88902      54.41335      17.93098     164.40072       170     s54297n17835e         0         0         0         0  
     171  hru00171                 0       1.16744      54.41665      17.83865     163.50561       171     s54297n17835e         0         0         0         0  
     172  hru00172                 0       8.75247      54.41698      17.92924     159.14670       172     s54297n17835e         0         0         0         0  
     173  hru00173                 0       0.31680      54.41527      17.44407      88.09132       173     s54383n17448e         0         0         0         0  
     174  hru00174                 0       1.30847      54.42015      17.84915     164.51364       174     s54297n17835e         0         0         0         0  
     175  hru00175                 0       0.32306      54.41596      17.42690      78.47338       175     s54383n17448e         0         0         0         0  
     176  hru00176                 0       0.32153      54.41631      17.44433      90.76777       176     s54383n17448e         0         0         0         0  
     177  hru00177                 0       1.72739      54.41983      17.72816     154.03137       177     s54296n17759e         0         0         0         0  
     178  hru00178                 0       2.00601      54.41465      17.30814      92.08708       178     s54426n17292e         0         0         0         0  
     179  hru00179                 0       2.77510      54.41510      17.31233      92.15532       179     s54426n17292e         0         0         0         0  
     180  hru00180                 0       4.44988      54.41678      17.46940     100.59066       180     s54383n17448e         0         0         0         0  
     181  hru00181                 0       3.02272      54.41742      17.47756      90.45300       181     s54383n17448e         0         0         0         0  
     182  hru00182                 0       0.35420      54.42054      17.46707     103.71650       182     s54383n17448e         0         0         0         0  