hydrology.hyd: written by SWAT+ editor v2.1.0 on 2026-01-19 18:47 for SWAT+ rev.2.1.4
name                 lat_ttime       lat_sed       can_max          esco          epco   orgn_enrich   orgp_enrich       cn3_swf       bio_mix         perco      lat_orgn      lat_orgp      harg_pet       latq_co  
hyd00001               0.00000       0.00000       1.00000       0.95000       1.00000       0.00000       0.00000       0.95000       0.20000       0.90000       0.00000       0.00000       0.00000       0.01000  
hyd00002               0.00000       0.00000       1.00000       0.95000       1.00000       0.00000       0.00000       0.95000       0.20000       0.90000       0.00000       0.00000       0.00000       0.01000  
hyd00003               0.00000       0.00000       1.00000       0.95000       1.00000       0.00000       0.00000       0.95000       0.20000       0.90000       0.00000       0.00000       0.00000       0.01000  
hyd00004               0.00000       0.00000       1.00000       0.95000       1.00000       0.00000       0.00000       0.95000       0.20000       0.90000       0.00000       0.00000       0.00000       0.01000  
hyd00005               0.00000       0.00000       1.00000       0.95000       1.00000       0.00000       0.00000       0.00000       0.20000       0.90000       0.00000       0.00000       0.00000       0.90000  
hyd00006               0.00000       0.00000       1.00000       0.95000       1.00000       0.00000       0.00000       0.30000       0.20000       0.90000       0.00000       0.00000       0.00000       0.20000  
hyd00007               0.00000       0.00000       1.00000       0.95000       1.00000       0.00000       0.00000       0.30000       0.20000       0.90000       0.00000       0.00000       0.00000       0.20000  
hyd00008               0.00000       0.00000       1.00000       0.95000       1.00000       0.00000       0.00000       0.00000       0.20000       0.05000       0.00000       0.00000       0.00000       0.90000  
hyd00009               0.00000       0.00000       1.00000       0.95000       1.00000       0.00000       0.00000       0.30000       0.20000       0.90000       0.00000       0.00000       0.00000       0.20000  
hyd00010               0.00000       0.00000       1.00000       0.95000       1.00000       0.00000       0.00000       0.00000       0.20000       0.05000       0.00000       0.00000       0.00000       0.90000  
hyd00011               0.00000       0.00000       1.00000       0.95000       1.00000       0.00000       0.00000       0.95000       0.20000       0.90000       0.00000       0.00000       0.00000       0.01000  
hyd00012               0.00000       0.00000       1.00000       0.95000       1.00000       0.00000       0.00000       0.95000       0.20000       0.90000       0.00000       0.00000       0.00000       0.01000  
hyd00013               0.00000       0.00000       1.00000       0.95000       1.00000       0.00000       0.00000       0.95000       0.20000       0.90000       0.00000       0.00000       0.00000       0.01000  
hyd00014               0.00000       0.00000       1.00000       0.95000       1.00000       0.00000       0.00000       0.95000       0.20000       0.90000       0.00000       0.00000       0.00000       0.01000  
hyd00015               0.00000       0.00000       1.00000       0.95000       1.00000       0.00000       0.00000       0.30000       0.20000       0.05000       0.00000       0.00000       0.00000       0.20000  
hyd00016               0.00000       0.00000       1.00000       0.95000       1.00000       0.00000       0.00000       0.00000       0.20000       0.90000       0.00000       0.00000       0.00000       0.90000  
hyd00017               0.00000       0.00000       1.00000       0.95000       1.00000       0.00000       0.00000       0.95000       0.20000       0.90000       0.00000       0.00000       0.00000       0.01000  
hyd00018               0.00000       0.00000       1.00000       0.95000       1.00000       0.00000       0.00000       0.00000       0.20000       0.90000       0.00000       0.00000       0.00000       0.90000  
hyd00019               0.00000       0.00000       1.00000       0.95000       1.00000       0.00000       0.00000       0.30000       0.20000       0.90000       0.00000       0.00000       0.00000       0.20000  
hyd00020               0.00000       0.00000       1.00000       0.95000       1.00000       0.00000       0.00000       0.95000       0.20000       0.90000       0.00000       0.00000       0.00000       0.01000  
hyd00021               0.00000       0.00000       1.00000       0.95000       1.00000       0.00000       0.00000       0.30000       0.20000       0.90000       0.00000       0.00000       0.00000       0.20000  
hyd00022               0.00000       0.00000       1.00000       0.95000       1.00000       0.00000       0.00000       0.30000       0.20000       0.90000       0.00000       0.00000       0.00000       0.20000  
hyd00023               0.00000       0.00000       1.00000       0.95000       1.00000       0.00000       0.00000       0.30000       0.20000       0.90000       0.00000       0.00000       0.00000       0.20000  
hyd00024               0.00000       0.00000       1.00000       0.95000       1.00000       0.00000       0.00000       0.95000       0.20000       0.05000       0.00000       0.00000       0.00000       0.01000  
hyd00025               0.00000       0.00000       1.00000       0.95000       1.00000       0.00000       0.00000       0.00000       0.20000       0.90000       0.00000       0.00000       0.00000       0.90000  
hyd00026               0.00000       0.00000       1.00000       0.95000       1.00000       0.00000       0.00000       0.00000       0.20000       0.90000       0.00000       0.00000       0.00000       0.90000  
hyd00027               0.00000       0.00000       1.00000       0.95000       1.00000       0.00000       0.00000       0.00000       0.20000       0.05000       0.00000       0.00000       0.00000       0.90000  
hyd00028               0.00000       0.00000       1.00000       0.95000       1.00000       0.00000       0.00000       0.95000       0.20000       0.90000       0.00000       0.00000       0.00000       0.01000  
hyd00029               0.00000       0.00000       1.00000       0.95000       1.00000       0.00000       0.00000       0.95000       0.20000       0.90000       0.00000       0.00000       0.00000       0.01000  
hyd00030               0.00000       0.00000       1.00000       0.95000       1.00000       0.00000       0.00000       0.30000       0.20000       0.90000       0.00000       0.00000       0.00000       0.20000  
hyd00031               0.00000       0.00000       1.00000       0.95000       1.00000       0.00000       0.00000       0.30000       0.20000       0.90000       0.00000       0.00000       0.00000       0.20000  
hyd00032               0.00000       0.00000       1.00000       0.95000       1.00000       0.00000       0.00000       0.00000       0.20000       0.50000       0.00000       0.00000       0.00000       0.90000  
hyd00033               0.00000       0.00000       1.00000       0.95000       1.00000       0.00000       0.00000       0.30000       0.20000       0.90000       0.00000       0.00000       0.00000       0.20000  
hyd00034               0.00000       0.00000       1.00000       0.95000       1.00000       0.00000       0.00000       0.95000       0.20000       0.90000       0.00000       0.00000       0.00000       0.01000  
hyd00035               0.00000       0.00000       1.00000       0.95000       1.00000       0.00000       0.00000       0.00000       0.20000       0.90000       0.00000       0.00000       0.00000       0.90000  
hyd00036               0.00000       0.00000       1.00000       0.95000       1.00000       0.00000       0.00000       0.30000       0.20000       0.90000       0.00000       0.00000       0.00000       0.20000  
hyd00037               0.00000       0.00000       1.00000       0.95000       1.00000       0.00000       0.00000       0.00000       0.20000       0.90000       0.00000       0.00000       0.00000       0.90000  
hyd00038               0.00000       0.00000       1.00000       0.95000       1.00000       0.00000       0.00000       0.95000       0.20000       0.90000       0.00000       0.00000       0.00000       0.01000  
hyd00039               0.00000       0.00000       1.00000       0.95000       1.00000       0.00000       0.00000       0.00000       0.20000       0.50000       0.00000       0.00000       0.00000       0.90000  
hyd00040               0.00000       0.00000       1.00000       0.95000       1.00000       0.00000       0.00000       0.00000       0.20000       0.90000       0.00000       0.00000       0.00000       0.90000  
hyd00041               0.00000       0.00000       1.00000       0.95000       1.00000       0.00000       0.00000       0.95000       0.20000       0.90000       0.00000       0.00000       0.00000       0.01000  
hyd00042               0.00000       0.00000       1.00000       0.95000       1.00000       0.00000       0.00000       0.00000       0.20000       0.90000       0.00000       0.00000       0.00000       0.90000  
hyd00043               0.00000       0.00000       1.00000       0.95000       1.00000       0.00000       0.00000       0.30000       0.20000       0.90000       0.00000       0.00000       0.00000       0.20000  
hyd00044               0.00000       0.00000       1.00000       0.95000       1.00000       0.00000       0.00000       0.30000       0.20000       0.90000       0.00000       0.00000       0.00000       0.20000  
hyd00045               0.00000       0.00000       1.00000       0.95000       1.00000       0.00000       0.00000       0.95000       0.20000       0.90000       0.00000       0.00000       0.00000       0.01000  
hyd00046               0.00000       0.00000       1.00000       0.95000       1.00000       0.00000       0.00000       0.00000       0.20000       0.50000       0.00000       0.00000       0.00000       0.90000  
hyd00047               0.00000       0.00000       1.00000       0.95000       1.00000       0.00000       0.00000       0.00000       0.20000       0.50000       0.00000       0.00000       0.00000       0.90000  
hyd00048               0.00000       0.00000       1.00000       0.95000       1.00000       0.00000       0.00000       0.00000       0.20000       0.50000       0.00000       0.00000       0.00000       0.90000  
hyd00049               0.00000       0.00000       1.00000       0.95000       1.00000       0.00000       0.00000       0.30000       0.20000       0.90000       0.00000       0.00000       0.00000       0.20000  
hyd00050               0.00000       0.00000       1.00000       0.95000       1.00000       0.00000       0.00000       0.00000       0.20000       0.50000       0.00000       0.00000       0.00000       0.90000  
hyd00051               0.00000       0.00000       1.00000       0.95000       1.00000       0.00000       0.00000       0.30000       0.20000       0.90000       0.00000       0.00000       0.00000       0.20000  
hyd00052               0.00000       0.00000       1.00000       0.95000       1.00000       0.00000       0.00000       0.30000       0.20000       0.90000       0.00000       0.00000       0.00000       0.20000  
hyd00053               0.00000       0.00000       1.00000       0.95000       1.00000       0.00000       0.00000       0.30000       0.20000       0.90000       0.00000       0.00000       0.00000       0.20000  
hyd00054               0.00000       0.00000       1.00000       0.95000       1.00000       0.00000       0.00000       0.30000       0.20000       0.90000       0.00000       0.00000       0.00000       0.20000  
hyd00055               0.00000       0.00000       1.00000       0.95000       1.00000       0.00000       0.00000       0.00000       0.20000       0.50000       0.00000       0.00000       0.00000       0.90000  
hyd00056               0.00000       0.00000       1.00000       0.95000       1.00000       0.00000       0.00000       0.30000       0.20000       0.90000       0.00000       0.00000       0.00000       0.20000  
hyd00057               0.00000       0.00000       1.00000       0.95000       1.00000       0.00000       0.00000       0.00000       0.20000       0.90000       0.00000       0.00000       0.00000       0.90000  
hyd00058               0.00000       0.00000       1.00000       0.95000       1.00000       0.00000       0.00000       0.30000       0.20000       0.90000       0.00000       0.00000       0.00000       0.20000  
hyd00059               0.00000       0.00000       1.00000       0.95000       1.00000       0.00000       0.00000       0.30000       0.20000       0.90000       0.00000       0.00000       0.00000       0.20000  
hyd00060               0.00000       0.00000       1.00000       0.95000       1.00000       0.00000       0.00000       0.00000       0.20000       0.50000       0.00000       0.00000       0.00000       0.90000  
hyd00061               0.00000       0.00000       1.00000       0.95000       1.00000       0.00000       0.00000       0.95000       0.20000       0.90000       0.00000       0.00000       0.00000       0.01000  
hyd00062               0.00000       0.00000       1.00000       0.95000       1.00000       0.00000       0.00000       0.95000       0.20000       0.90000       0.00000       0.00000       0.00000       0.01000  
hyd00063               0.00000       0.00000       1.00000       0.95000       1.00000       0.00000       0.00000       0.00000       0.20000       0.50000       0.00000       0.00000       0.00000       0.90000  
hyd00064               0.00000       0.00000       1.00000       0.95000       1.00000       0.00000       0.00000       0.00000       0.20000       0.50000       0.00000       0.00000       0.00000       0.90000  
hyd00065               0.00000       0.00000       1.00000       0.95000       1.00000       0.00000       0.00000       0.95000       0.20000       0.90000       0.00000       0.00000       0.00000       0.01000  
hyd00066               0.00000       0.00000       1.00000       0.95000       1.00000       0.00000       0.00000       0.00000       0.20000       0.50000       0.00000       0.00000       0.00000       0.90000  
hyd00067               0.00000       0.00000       1.00000       0.95000       1.00000       0.00000       0.00000       0.95000       0.20000       0.90000       0.00000       0.00000       0.00000       0.01000  
hyd00068               0.00000       0.00000       1.00000       0.95000       1.00000       0.00000       0.00000       0.00000       0.20000       0.50000       0.00000       0.00000       0.00000       0.90000  
hyd00069               0.00000       0.00000       1.00000       0.95000       1.00000       0.00000       0.00000       0.95000       0.20000       0.90000       0.00000       0.00000       0.00000       0.01000  
hyd00070               0.00000       0.00000       1.00000       0.95000       1.00000       0.00000       0.00000       0.95000       0.20000       0.90000       0.00000       0.00000       0.00000       0.01000  
hyd00071               0.00000       0.00000       1.00000       0.95000       1.00000       0.00000       0.00000       0.95000       0.20000       0.90000       0.00000       0.00000       0.00000       0.01000  
hyd00072               0.00000       0.00000       1.00000       0.95000       1.00000       0.00000       0.00000       0.00000       0.20000       0.50000       0.00000       0.00000       0.00000       0.90000  
hyd00073               0.00000       0.00000       1.00000       0.95000       1.00000       0.00000       0.00000       0.30000       0.20000       0.90000       0.00000       0.00000       0.00000       0.20000  
hyd00074               0.00000       0.00000       1.00000       0.95000       1.00000       0.00000       0.00000       0.00000       0.20000       0.50000       0.00000       0.00000       0.00000       0.90000  
hyd00075               0.00000       0.00000       1.00000       0.95000       1.00000       0.00000       0.00000       0.00000       0.20000       0.50000       0.00000       0.00000       0.00000       0.90000  
hyd00076               0.00000       0.00000       1.00000       0.95000       1.00000       0.00000       0.00000       0.00000       0.20000       0.50000       0.00000       0.00000       0.00000       0.90000  
hyd00077               0.00000       0.00000       1.00000       0.95000       1.00000       0.00000       0.00000       0.00000       0.20000       0.50000       0.00000       0.00000       0.00000       0.90000  
hyd00078               0.00000       0.00000       1.00000       0.95000       1.00000       0.00000       0.00000       0.00000       0.20000       0.90000       0.00000       0.00000       0.00000       0.90000  
hyd00079               0.00000       0.00000       1.00000       0.95000       1.00000       0.00000       0.00000       0.00000       0.20000       0.90000       0.00000       0.00000       0.00000       0.90000  
hyd00080               0.00000       0.00000       1.00000       0.95000       1.00000       0.00000       0.00000       0.00000       0.20000       0.50000       0.00000       0.00000       0.00000       0.90000  
hyd00081               0.00000       0.00000       1.00000       0.95000       1.00000       0.00000       0.00000       0.30000       0.20000       0.90000       0.00000       0.00000       0.00000       0.20000  
hyd00082               0.00000       0.00000       1.00000       0.95000       1.00000       0.00000       0.00000       0.30000       0.20000       0.90000       0.00000       0.00000       0.00000       0.20000  
hyd00083               0.00000       0.00000       1.00000       0.95000       1.00000       0.00000       0.00000       0.00000       0.20000       0.50000       0.00000       0.00000       0.00000       0.90000  
hyd00084               0.00000       0.00000       1.00000       0.95000       1.00000       0.00000       0.00000       0.00000       0.20000       0.90000       0.00000       0.00000       0.00000       0.90000  
hyd00085               0.00000       0.00000       1.00000       0.95000       1.00000       0.00000       0.00000       0.95000       0.20000       0.90000       0.00000       0.00000       0.00000       0.01000  
hyd00086               0.00000       0.00000       1.00000       0.95000       1.00000       0.00000       0.00000       0.30000       0.20000       0.90000       0.00000       0.00000       0.00000       0.20000  
hyd00087               0.00000       0.00000       1.00000       0.95000       1.00000       0.00000       0.00000       0.95000       0.20000       0.90000       0.00000       0.00000       0.00000       0.01000  
hyd00088               0.00000       0.00000       1.00000       0.95000       1.00000       0.00000       0.00000       0.00000       0.20000       0.90000       0.00000       0.00000       0.00000       0.90000  
hyd00089               0.00000       0.00000       1.00000       0.95000       1.00000       0.00000       0.00000       0.00000       0.20000       0.90000       0.00000       0.00000       0.00000       0.90000  
hyd00090               0.00000       0.00000       1.00000       0.95000       1.00000       0.00000       0.00000       0.00000       0.20000       0.50000       0.00000       0.00000       0.00000       0.90000  
hyd00091               0.00000       0.00000       1.00000       0.95000       1.00000       0.00000       0.00000       0.00000       0.20000       0.90000       0.00000       0.00000       0.00000       0.90000  
hyd00092               0.00000       0.00000       1.00000       0.95000       1.00000       0.00000       0.00000       0.30000       0.20000       0.90000       0.00000       0.00000       0.00000       0.20000  
hyd00093               0.00000       0.00000       1.00000       0.95000       1.00000       0.00000       0.00000       0.00000       0.20000       0.50000       0.00000       0.00000       0.00000       0.90000  
hyd00094               0.00000       0.00000       1.00000       0.95000       1.00000       0.00000       0.00000       0.00000       0.20000       0.50000       0.00000       0.00000       0.00000       0.90000  
hyd00095               0.00000       0.00000       1.00000       0.95000       1.00000       0.00000       0.00000       0.00000       0.20000       0.50000       0.00000       0.00000       0.00000       0.90000  
hyd00096               0.00000       0.00000       1.00000       0.95000       1.00000       0.00000       0.00000       0.00000       0.20000       0.50000       0.00000       0.00000       0.00000       0.90000  
hyd00097               0.00000       0.00000       1.00000       0.95000       1.00000       0.00000       0.00000       0.00000       0.20000       0.90000       0.00000       0.00000       0.00000       0.90000  
hyd00098               0.00000       0.00000       1.00000       0.95000       1.00000       0.00000       0.00000       0.00000       0.20000       0.50000       0.00000       0.00000       0.00000       0.90000  
hyd00099               0.00000       0.00000       1.00000       0.95000       1.00000       0.00000       0.00000       0.00000       0.20000       0.50000       0.00000       0.00000       0.00000       0.90000  
hyd00100               0.00000       0.00000       1.00000       0.95000       1.00000       0.00000       0.00000       0.00000       0.20000       0.50000       0.00000       0.00000       0.00000       0.90000  
hyd00101               0.00000       0.00000       1.00000       0.95000       1.00000       0.00000       0.00000       0.00000       0.20000       0.50000       0.00000       0.00000       0.00000       0.90000  
hyd00102               0.00000       0.00000       1.00000       0.95000       1.00000       0.00000       0.00000       0.00000       0.20000       0.90000       0.00000       0.00000       0.00000       0.90000  
hyd00103               0.00000       0.00000       1.00000       0.95000       1.00000       0.00000       0.00000       0.00000       0.20000       0.50000       0.00000       0.00000       0.00000       0.90000  
hyd00104               0.00000       0.00000       1.00000       0.95000       1.00000       0.00000       0.00000       0.00000       0.20000       0.50000       0.00000       0.00000       0.00000       0.90000  
hyd00105               0.00000       0.00000       1.00000       0.95000       1.00000       0.00000       0.00000       0.00000       0.20000       0.90000       0.00000       0.00000       0.00000       0.90000  
hyd00106               0.00000       0.00000       1.00000       0.95000       1.00000       0.00000       0.00000       0.00000       0.20000       0.50000       0.00000       0.00000       0.00000       0.90000  
hyd00107               0.00000       0.00000       1.00000       0.95000       1.00000       0.00000       0.00000       0.30000       0.20000       0.90000       0.00000       0.00000       0.00000       0.20000  
hyd00108               0.00000       0.00000       1.00000       0.95000       1.00000       0.00000       0.00000       0.00000       0.20000       0.50000       0.00000       0.00000       0.00000       0.90000  
hyd00109               0.00000       0.00000       1.00000       0.95000       1.00000       0.00000       0.00000       0.00000       0.20000       0.50000       0.00000       0.00000       0.00000       0.90000  
hyd00110               0.00000       0.00000       1.00000       0.95000       1.00000       0.00000       0.00000       0.00000       0.20000       0.50000       0.00000       0.00000       0.00000       0.90000  
hyd00111               0.00000       0.00000       1.00000       0.95000       1.00000       0.00000       0.00000       0.00000       0.20000       0.50000       0.00000       0.00000       0.00000       0.90000  
hyd00112               0.00000       0.00000       1.00000       0.95000       1.00000       0.00000       0.00000       0.00000       0.20000       0.90000       0.00000       0.00000       0.00000       0.90000  
hyd00113               0.00000       0.00000       1.00000       0.95000       1.00000       0.00000       0.00000       0.00000       0.20000       0.90000       0.00000       0.00000       0.00000       0.90000  
hyd00114               0.00000       0.00000       1.00000       0.95000       1.00000       0.00000       0.00000       0.95000       0.20000       0.90000       0.00000       0.00000       0.00000       0.01000  
hyd00115               0.00000       0.00000       1.00000       0.95000       1.00000       0.00000       0.00000       0.00000       0.20000       0.90000       0.00000       0.00000       0.00000       0.90000  
hyd00116               0.00000       0.00000       1.00000       0.95000       1.00000       0.00000       0.00000       0.00000       0.20000       0.50000       0.00000       0.00000       0.00000       0.90000  
hyd00117               0.00000       0.00000       1.00000       0.95000       1.00000       0.00000       0.00000       0.00000       0.20000       0.50000       0.00000       0.00000       0.00000       0.90000  
hyd00118               0.00000       0.00000       1.00000       0.95000       1.00000       0.00000       0.00000       0.00000       0.20000       0.50000       0.00000       0.00000       0.00000       0.90000  
hyd00119               0.00000       0.00000       1.00000       0.95000       1.00000       0.00000       0.00000       0.95000       0.20000       0.90000       0.00000       0.00000       0.00000       0.01000  
hyd00120               0.00000       0.00000       1.00000       0.95000       1.00000       0.00000       0.00000       0.00000       0.20000       0.90000       0.00000       0.00000       0.00000       0.90000  
hyd00121               0.00000       0.00000       1.00000       0.95000       1.00000       0.00000       0.00000       0.95000       0.20000       0.90000       0.00000       0.00000       0.00000       0.01000  
hyd00122               0.00000       0.00000       1.00000       0.95000       1.00000       0.00000       0.00000       0.00000       0.20000       0.50000       0.00000       0.00000       0.00000       0.90000  
hyd00123               0.00000       0.00000       1.00000       0.95000       1.00000       0.00000       0.00000       0.00000       0.20000       0.50000       0.00000       0.00000       0.00000       0.90000  
hyd00124               0.00000       0.00000       1.00000       0.95000       1.00000       0.00000       0.00000       0.00000       0.20000       0.90000       0.00000       0.00000       0.00000       0.90000  
hyd00125               0.00000       0.00000       1.00000       0.95000       1.00000       0.00000       0.00000       0.30000       0.20000       0.90000       0.00000       0.00000       0.00000       0.20000  
hyd00126               0.00000       0.00000       1.00000       0.95000       1.00000       0.00000       0.00000       0.30000       0.20000       0.90000       0.00000       0.00000       0.00000       0.20000  
hyd00127               0.00000       0.00000       1.00000       0.95000       1.00000       0.00000       0.00000       0.30000       0.20000       0.90000       0.00000       0.00000       0.00000       0.20000  
hyd00128               0.00000       0.00000       1.00000       0.95000       1.00000       0.00000       0.00000       0.00000       0.20000       0.50000       0.00000       0.00000       0.00000       0.90000  
hyd00129               0.00000       0.00000       1.00000       0.95000       1.00000       0.00000       0.00000       0.00000       0.20000       0.90000       0.00000       0.00000       0.00000       0.90000  
hyd00130               0.00000       0.00000       1.00000       0.95000       1.00000       0.00000       0.00000       0.00000       0.20000       0.90000       0.00000       0.00000       0.00000       0.90000  
hyd00131               0.00000       0.00000       1.00000       0.95000       1.00000       0.00000       0.00000       0.00000       0.20000       0.50000       0.00000       0.00000       0.00000       0.90000  
hyd00132               0.00000       0.00000       1.00000       0.95000       1.00000       0.00000       0.00000       0.95000       0.20000       0.90000       0.00000       0.00000       0.00000       0.01000  
hyd00133               0.00000       0.00000       1.00000       0.95000       1.00000       0.00000       0.00000       0.95000       0.20000       0.90000       0.00000       0.00000       0.00000       0.01000  
hyd00134               0.00000       0.00000       1.00000       0.95000       1.00000       0.00000       0.00000       0.30000       0.20000       0.90000       0.00000       0.00000       0.00000       0.20000  
hyd00135               0.00000       0.00000       1.00000       0.95000       1.00000       0.00000       0.00000       0.95000       0.20000       0.90000       0.00000       0.00000       0.00000       0.01000  
hyd00136               0.00000       0.00000       1.00000       0.95000       1.00000       0.00000       0.00000       0.30000       0.20000       0.90000       0.00000       0.00000       0.00000       0.20000  
hyd00137               0.00000       0.00000       1.00000       0.95000       1.00000       0.00000       0.00000       0.00000       0.20000       0.50000       0.00000       0.00000       0.00000       0.90000  
hyd00138               0.00000       0.00000       1.00000       0.95000       1.00000       0.00000       0.00000       0.00000       0.20000       0.90000       0.00000       0.00000       0.00000       0.90000  