landuse.lum: written by SWAT+ editor v2.1.0 on 2026-01-19 18:47 for SWAT+ rev.2.1.4, edited manually on 2026-01-19 18:50:34.390136 and edited with SWATfarmR 2.0.5 on 2026-01-20 00:19:14.80387
name                         cal_group          plnt_com               mgt               cn2         cons_prac             urban            urb_ro           ov_mann              tile               sep               vfs              grww               bmp
agrl1000_lum_6907_1               null agrl1000_comm_6907_1 agrl1000_mgt_6907_1        rc_strow_g     up_down_slope              null              null     up_down_slope              null              null              null              null              null
agrl1001_lum_6908_1               null agrl1001_comm_6908_1 agrl1001_mgt_6908_1        rc_strow_g     up_down_slope              null              null     up_down_slope              null              null              null              null              null
agrl1002_lum_6909_1               null agrl1002_comm_6909_1 agrl1002_mgt_6909_1        rc_strow_g     up_down_slope              null              null     up_down_slope              null              null              null              null              null
agrl1003_lum_6910_1               null agrl1003_comm_6910_1 agrl1003_mgt_6910_1        rc_strow_g     up_down_slope              null              null     up_down_slope              null              null              null              null              null
agrl1004_lum_6911_1               null agrl1004_comm_6911_1 agrl1004_mgt_6911_1        rc_strow_g     up_down_slope              null              null     up_down_slope              null              null              null              null              null
agrl1005_lum_6912_1               null agrl1005_comm_6912_1 agrl1005_mgt_6912_1        rc_strow_g     up_down_slope              null              null     up_down_slope              null              null              null              null              null
agrl1006_lum_6913_1               null agrl1006_comm_6913_1 agrl1006_mgt_6913_1        rc_strow_g     up_down_slope              null              null     up_down_slope              null              null              null              null              null
agrl1007_lum_6914_1               null agrl1007_comm_6914_1 agrl1007_mgt_6914_1        rc_strow_g     up_down_slope              null              null     up_down_slope              null              null              null              null              null
agrl1008_lum_6915_1               null agrl1008_comm_6915_1 agrl1008_mgt_6915_1        rc_strow_g     up_down_slope              null              null     up_down_slope              null              null              null              null              null
agrl1009_lum_6916_1               null agrl1009_comm_6916_1 agrl1009_mgt_6916_1        rc_strow_g     up_down_slope              null              null     up_down_slope              null              null              null              null              null
agrl100_lum_6007_1                null agrl100_comm_6007_1 agrl100_mgt_6007_1        rc_strow_g     up_down_slope              null              null     up_down_slope              null              null              null              null              null
agrl1010_lum_6917_1               null agrl1010_comm_6917_1 agrl1010_mgt_6917_1        rc_strow_g     up_down_slope              null              null     up_down_slope              null              null              null              null              null
agrl1011_lum_6918_1               null agrl1011_comm_6918_1 agrl1011_mgt_6918_1        rc_strow_g     up_down_slope              null              null     up_down_slope              null              null              null              null              null
agrl1012_lum_6919_1               null agrl1012_comm_6919_1 agrl1012_mgt_6919_1        rc_strow_g     up_down_slope              null              null     up_down_slope              null              null              null              null              null
agrl1013_lum_6920_1               null agrl1013_comm_6920_1 agrl1013_mgt_6920_1        rc_strow_g     up_down_slope              null              null     up_down_slope              null              null              null              null              null
agrl1014_lum_6921_1               null agrl1014_comm_6921_1 agrl1014_mgt_6921_1        rc_strow_g     up_down_slope              null              null     up_down_slope              null              null              null              null              null
agrl1015_lum_6922_1               null agrl1015_comm_6922_1 agrl1015_mgt_6922_1        rc_strow_g     up_down_slope              null              null     up_down_slope              null              null              null              null              null
agrl1016_lum_6923_1               null agrl1016_comm_6923_1 agrl1016_mgt_6923_1        rc_strow_g     up_down_slope              null              null     up_down_slope              null              null              null              null              null
agrl1017_lum_6924_1               null agrl1017_comm_6924_1 agrl1017_mgt_6924_1        rc_strow_g     up_down_slope              null              null     up_down_slope              null              null              null              null              null
agrl1018_lum_6925_1               null agrl1018_comm_6925_1 agrl1018_mgt_6925_1        rc_strow_g     up_down_slope              null              null     up_down_slope              null              null              null              null              null
agrl1019_lum_6926_1               null agrl1019_comm_6926_1 agrl1019_mgt_6926_1        rc_strow_g     up_down_slope              null              null     up_down_slope              null              null              null              null              null
agrl101_lum_6008_1                null agrl101_comm_6008_1 agrl101_mgt_6008_1        rc_strow_g     up_down_slope              null              null     up_down_slope              null              null              null              null              null
agrl1020_lum_6927_1               null agrl1020_comm_6927_1 agrl1020_mgt_6927_1        rc_strow_g     up_down_slope              null              null     up_down_slope              null              null              null              null              null
agrl1021_lum_6928_1               null agrl1021_comm_6928_1 agrl1021_mgt_6928_1        rc_strow_g     up_down_slope              null              null     up_down_slope              null              null              null              null              null
agrl1022_lum_6929_1               null agrl1022_comm_6929_1 agrl1022_mgt_6929_1        rc_strow_g     up_down_slope              null              null     up_down_slope              null              null              null              null              null
agrl1023_lum_6930_1               null agrl1023_comm_6930_1 agrl1023_mgt_6930_1        rc_strow_g     up_down_slope              null              null     up_down_slope              null              null              null              null              null
agrl1024_lum_6931_1               null agrl1024_comm_6931_1 agrl1024_mgt_6931_1        rc_strow_g     up_down_slope              null              null     up_down_slope              null              null              null              null              null
agrl1025_lum_6932_1               null agrl1025_comm_6932_1 agrl1025_mgt_6932_1        rc_strow_g     up_down_slope              null              null     up_down_slope              null              null              null              null              null
agrl1026_lum_6933_1               null agrl1026_comm_6933_1 agrl1026_mgt_6933_1        rc_strow_g     up_down_slope              null              null     up_down_slope              null              null              null              null              null
agrl1027_lum_6934_1               null agrl1027_comm_6934_1 agrl1027_mgt_6934_1        rc_strow_g     up_down_slope              null              null     up_down_slope              null              null              null              null              null
agrl1028_lum_6935_1               null agrl1028_comm_6935_1 agrl1028_mgt_6935_1        rc_strow_g     up_down_slope              null              null     up_down_slope              null              null              null              null              null
agrl1029_lum_6936_1               null agrl1029_comm_6936_1 agrl1029_mgt_6936_1        rc_strow_g     up_down_slope              null              null     up_down_slope              null              null              null              null              null
agrl102_lum_6009_1                null agrl102_comm_6009_1 agrl102_mgt_6009_1        rc_strow_g     up_down_slope              null              null     up_down_slope              null              null              null              null              null
agrl1030_lum_6937_1               null agrl1030_comm_6937_1 agrl1030_mgt_6937_1        rc_strow_g     up_down_slope              null              null     up_down_slope              null              null              null              null              null
agrl1031_lum_6938_1               null agrl1031_comm_6938_1 agrl1031_mgt_6938_1        rc_strow_g     up_down_slope              null              null     up_down_slope              null              null              null              null              null
agrl1032_lum_6939_1               null agrl1032_comm_6939_1 agrl1032_mgt_6939_1        rc_strow_g     up_down_slope              null              null     up_down_slope              null              null              null              null              null
agrl1033_lum_6940_1               null agrl1033_comm_6940_1 agrl1033_mgt_6940_1        rc_strow_g     up_down_slope              null              null     up_down_slope              null              null              null              null              null
agrl1034_lum_6941_1               null agrl1034_comm_6941_1 agrl1034_mgt_6941_1        rc_strow_g     up_down_slope              null              null     up_down_slope              null              null              null              null              null
agrl1035_lum_6942_1               null agrl1035_comm_6942_1 agrl1035_mgt_6942_1        rc_strow_g     up_down_slope              null              null     up_down_slope              null              null              null              null              null
agrl1036_lum_6943_1               null agrl1036_comm_6943_1 agrl1036_mgt_6943_1        rc_strow_g     up_down_slope              null              null     up_down_slope              null              null              null              null              null
agrl1037_lum_6944_1               null agrl1037_comm_6944_1 agrl1037_mgt_6944_1        rc_strow_g     up_down_slope              null              null     up_down_slope              null              null              null              null              null
agrl1038_lum_6945_1               null agrl1038_comm_6945_1 agrl1038_mgt_6945_1        rc_strow_g     up_down_slope              null              null     up_down_slope              null              null              null              null              null
agrl1039_lum_6946_1               null agrl1039_comm_6946_1 agrl1039_mgt_6946_1        rc_strow_g     up_down_slope              null              null     up_down_slope              null              null              null              null              null
agrl103_lum_6010_1                null agrl103_comm_6010_1 agrl103_mgt_6010_1        rc_strow_g     up_down_slope              null              null     up_down_slope              null              null              null              null              null
agrl1040_lum_6947_1               null agrl1040_comm_6947_1 agrl1040_mgt_6947_1        rc_strow_g     up_down_slope              null              null     up_down_slope              null              null              null              null              null
agrl1041_lum_6948_1               null agrl1041_comm_6948_1 agrl1041_mgt_6948_1        rc_strow_g     up_down_slope              null              null     up_down_slope              null              null              null              null              null
agrl1042_lum_6949_1               null agrl1042_comm_6949_1 agrl1042_mgt_6949_1        rc_strow_g     up_down_slope              null              null     up_down_slope              null              null              null              null              null
agrl1043_lum_6950_1               null agrl1043_comm_6950_1 agrl1043_mgt_6950_1        rc_strow_g     up_down_slope              null              null     up_down_slope              null              null              null              null              null
agrl1044_lum_6951_1               null agrl1044_comm_6951_1 agrl1044_mgt_6951_1        rc_strow_g     up_down_slope              null              null     up_down_slope              null              null              null              null              null
agrl1045_lum_6952_1               null agrl1045_comm_6952_1 agrl1045_mgt_6952_1        rc_strow_g     up_down_slope              null              null     up_down_slope              null              null              null              null              null
agrl1046_lum_6953_1               null agrl1046_comm_6953_1 agrl1046_mgt_6953_1        rc_strow_g     up_down_slope              null              null     up_down_slope              null              null              null              null              null
agrl1047_lum_6954_1               null agrl1047_comm_6954_1 agrl1047_mgt_6954_1        rc_strow_g     up_down_slope              null              null     up_down_slope              null              null              null              null              null
agrl1048_lum_6955_1               null agrl1048_comm_6955_1 agrl1048_mgt_6955_1        rc_strow_g     up_down_slope              null              null     up_down_slope              null              null              null              null              null
agrl1049_lum_6956_1               null agrl1049_comm_6956_1 agrl1049_mgt_6956_1        rc_strow_g     up_down_slope              null              null     up_down_slope              null              null              null              null              null
agrl104_lum_6011_1                null agrl104_comm_6011_1 agrl104_mgt_6011_1        rc_strow_g     up_down_slope              null              null     up_down_slope              null              null              null              null              null
agrl1050_lum_6957_1               null agrl1050_comm_6957_1 agrl1050_mgt_6957_1        rc_strow_g     up_down_slope              null              null     up_down_slope              null              null              null              null              null
agrl1051_lum_6958_1               null agrl1051_comm_6958_1 agrl1051_mgt_6958_1        rc_strow_g     up_down_slope              null              null     up_down_slope              null              null              null              null              null
agrl1052_lum_6959_1               null agrl1052_comm_6959_1 agrl1052_mgt_6959_1        rc_strow_g     up_down_slope              null              null     up_down_slope              null              null              null              null              null
agrl1053_lum_6960_1               null agrl1053_comm_6960_1 agrl1053_mgt_6960_1        rc_strow_g     up_down_slope              null              null     up_down_slope              null              null              null              null              null
agrl1054_lum_6961_1               null agrl1054_comm_6961_1 agrl1054_mgt_6961_1        rc_strow_g     up_down_slope              null              null     up_down_slope              null              null              null              null              null
agrl1055_lum_6962_1               null agrl1055_comm_6962_1 agrl1055_mgt_6962_1        rc_strow_g     up_down_slope              null              null     up_down_slope              null              null              null              null              null
agrl1056_lum_6963_1               null agrl1056_comm_6963_1 agrl1056_mgt_6963_1        rc_strow_g     up_down_slope              null              null     up_down_slope              null              null              null              null              null
agrl1057_lum_6964_1               null agrl1057_comm_6964_1 agrl1057_mgt_6964_1        rc_strow_g     up_down_slope              null              null     up_down_slope              null              null              null              null              null
agrl1058_lum_6965_1               null agrl1058_comm_6965_1 agrl1058_mgt_6965_1        rc_strow_g     up_down_slope              null              null     up_down_slope              null              null              null              null              null
agrl1059_lum_6966_1               null agrl1059_comm_6966_1 agrl1059_mgt_6966_1        rc_strow_g     up_down_slope              null              null     up_down_slope              null              null              null              null              null
agrl105_lum_6012_1                null agrl105_comm_6012_1 agrl105_mgt_6012_1        rc_strow_g     up_down_slope              null              null     up_down_slope              null              null              null              null              null
agrl1060_lum_6967_1               null agrl1060_comm_6967_1 agrl1060_mgt_6967_1        rc_strow_g     up_down_slope              null              null     up_down_slope              null              null              null              null              null
agrl1061_lum_6968_1               null agrl1061_comm_6968_1 agrl1061_mgt_6968_1        rc_strow_g     up_down_slope              null              null     up_down_slope              null              null              null              null              null
agrl1062_lum_6969_1               null agrl1062_comm_6969_1 agrl1062_mgt_6969_1        rc_strow_g     up_down_slope              null              null     up_down_slope              null              null              null              null              null
agrl1063_lum_6970_1               null agrl1063_comm_6970_1 agrl1063_mgt_6970_1        rc_strow_g     up_down_slope              null              null     up_down_slope              null              null              null              null              null
agrl1064_lum_6971_1               null agrl1064_comm_6971_1 agrl1064_mgt_6971_1        rc_strow_g     up_down_slope              null              null     up_down_slope              null              null              null              null              null
agrl1065_lum_6972_1               null agrl1065_comm_6972_1 agrl1065_mgt_6972_1        rc_strow_g     up_down_slope              null              null     up_down_slope              null              null              null              null              null
agrl1066_lum_6973_1               null agrl1066_comm_6973_1 agrl1066_mgt_6973_1        rc_strow_g     up_down_slope              null              null     up_down_slope              null              null              null              null              null
agrl1067_lum_6974_1               null agrl1067_comm_6974_1 agrl1067_mgt_6974_1        rc_strow_g     up_down_slope              null              null     up_down_slope              null              null              null              null              null
agrl1068_lum_6975_1               null agrl1068_comm_6975_1 agrl1068_mgt_6975_1        rc_strow_g     up_down_slope              null              null     up_down_slope              null              null              null              null              null
agrl1069_lum_6976_1               null agrl1069_comm_6976_1 agrl1069_mgt_6976_1        rc_strow_g     up_down_slope              null              null     up_down_slope              null              null              null              null              null
agrl106_lum_6013_1                null agrl106_comm_6013_1 agrl106_mgt_6013_1        rc_strow_g     up_down_slope              null              null     up_down_slope              null              null              null              null              null
agrl1070_lum_6977_1               null agrl1070_comm_6977_1 agrl1070_mgt_6977_1        rc_strow_g     up_down_slope              null              null     up_down_slope              null              null              null              null              null
agrl1071_lum_6978_1               null agrl1071_comm_6978_1 agrl1071_mgt_6978_1        rc_strow_g     up_down_slope              null              null     up_down_slope              null              null              null              null              null
agrl1072_lum_6979_1               null agrl1072_comm_6979_1 agrl1072_mgt_6979_1        rc_strow_g     up_down_slope              null              null     up_down_slope              null              null              null              null              null
agrl1073_lum_6980_1               null agrl1073_comm_6980_1 agrl1073_mgt_6980_1        rc_strow_g     up_down_slope              null              null     up_down_slope              null              null              null              null              null
agrl1074_lum_6981_1               null agrl1074_comm_6981_1 agrl1074_mgt_6981_1        rc_strow_g     up_down_slope              null              null     up_down_slope              null              null              null              null              null
agrl1075_lum_6982_1               null agrl1075_comm_6982_1 agrl1075_mgt_6982_1        rc_strow_g     up_down_slope              null              null     up_down_slope              null              null              null              null              null
agrl1076_lum_6983_1               null agrl1076_comm_6983_1 agrl1076_mgt_6983_1        rc_strow_g     up_down_slope              null              null     up_down_slope              null              null              null              null              null
agrl1077_lum_6984_1               null agrl1077_comm_6984_1 agrl1077_mgt_6984_1        rc_strow_g     up_down_slope              null              null     up_down_slope              null              null              null              null              null
agrl1078_lum_6985_1               null agrl1078_comm_6985_1 agrl1078_mgt_6985_1        rc_strow_g     up_down_slope              null              null     up_down_slope              null              null              null              null              null
agrl1079_lum_6986_1               null agrl1079_comm_6986_1 agrl1079_mgt_6986_1        rc_strow_g     up_down_slope              null              null     up_down_slope              null              null              null              null              null
agrl107_lum_6014_1                null agrl107_comm_6014_1 agrl107_mgt_6014_1        rc_strow_g     up_down_slope              null              null     up_down_slope              null              null              null              null              null
agrl1080_lum_6987_1               null agrl1080_comm_6987_1 agrl1080_mgt_6987_1        rc_strow_g     up_down_slope              null              null     up_down_slope              null              null              null              null              null
agrl1081_lum_6988_1               null agrl1081_comm_6988_1 agrl1081_mgt_6988_1        rc_strow_g     up_down_slope              null              null     up_down_slope              null              null              null              null              null
agrl1082_lum_6989_1               null agrl1082_comm_6989_1 agrl1082_mgt_6989_1        rc_strow_g     up_down_slope              null              null     up_down_slope              null              null              null              null              null
agrl1083_lum_6990_1               null agrl1083_comm_6990_1 agrl1083_mgt_6990_1        rc_strow_g     up_down_slope              null              null     up_down_slope              null              null              null              null              null
agrl1084_lum_6991_1               null agrl1084_comm_6991_1 agrl1084_mgt_6991_1        rc_strow_g     up_down_slope              null              null     up_down_slope              null              null              null              null              null
agrl1085_lum_6992_1               null agrl1085_comm_6992_1 agrl1085_mgt_6992_1        rc_strow_g     up_down_slope              null              null     up_down_slope              null              null              null              null              null
agrl1086_lum_6993_1               null agrl1086_comm_6993_1 agrl1086_mgt_6993_1        rc_strow_g     up_down_slope              null              null     up_down_slope              null              null              null              null              null
agrl1087_lum_6994_1               null agrl1087_comm_6994_1 agrl1087_mgt_6994_1        rc_strow_g     up_down_slope              null              null     up_down_slope              null              null              null              null              null
agrl1088_lum_6995_1               null agrl1088_comm_6995_1 agrl1088_mgt_6995_1        rc_strow_g     up_down_slope              null              null     up_down_slope              null              null              null              null              null
agrl1089_lum_6996_1               null agrl1089_comm_6996_1 agrl1089_mgt_6996_1        rc_strow_g     up_down_slope              null              null     up_down_slope              null              null              null              null              null
agrl108_lum_6015_1                null agrl108_comm_6015_1 agrl108_mgt_6015_1        rc_strow_g     up_down_slope              null              null     up_down_slope              null              null              null              null              null
agrl1090_lum_6997_1               null agrl1090_comm_6997_1 agrl1090_mgt_6997_1        rc_strow_g     up_down_slope              null              null     up_down_slope              null              null              null              null              null
agrl1091_lum_6998_1               null agrl1091_comm_6998_1 agrl1091_mgt_6998_1        rc_strow_g     up_down_slope              null              null     up_down_slope              null              null              null              null              null
agrl1092_lum_6999_1               null agrl1092_comm_6999_1 agrl1092_mgt_6999_1        rc_strow_g     up_down_slope              null              null     up_down_slope              null              null              null              null              null
agrl1093_lum_7000_1               null agrl1093_comm_7000_1 agrl1093_mgt_7000_1        rc_strow_g     up_down_slope              null              null     up_down_slope              null              null              null              null              null
agrl1094_lum_7001_1               null agrl1094_comm_7001_1 agrl1094_mgt_7001_1        rc_strow_g     up_down_slope              null              null     up_down_slope              null              null              null              null              null
agrl1095_lum_7002_1               null agrl1095_comm_7002_1 agrl1095_mgt_7002_1        rc_strow_g     up_down_slope              null              null     up_down_slope              null              null              null              null              null
agrl1096_lum_7003_1               null agrl1096_comm_7003_1 agrl1096_mgt_7003_1        rc_strow_g     up_down_slope              null              null     up_down_slope              null              null              null              null              null
agrl1097_lum_7004_1               null agrl1097_comm_7004_1 agrl1097_mgt_7004_1        rc_strow_g     up_down_slope              null              null     up_down_slope              null              null              null              null              null
agrl1098_lum_7005_1               null agrl1098_comm_7005_1 agrl1098_mgt_7005_1        rc_strow_g     up_down_slope              null              null     up_down_slope              null              null              null              null              null
agrl1099_lum_7006_1               null agrl1099_comm_7006_1 agrl1099_mgt_7006_1        rc_strow_g     up_down_slope              null              null     up_down_slope              null              null              null              null              null
agrl109_lum_6016_1                null agrl109_comm_6016_1 agrl109_mgt_6016_1        rc_strow_g     up_down_slope              null              null     up_down_slope              null              null              null              null              null
agrl10_lum_5917_1                 null agrl10_comm_5917_1 agrl10_mgt_5917_1        rc_strow_g     up_down_slope              null              null     up_down_slope              null              null              null              null              null
agrl1100_lum_7007_1               null agrl1100_comm_7007_1 agrl1100_mgt_7007_1        rc_strow_g     up_down_slope              null              null     up_down_slope              null              null              null              null              null
agrl1101_lum_7008_1               null agrl1101_comm_7008_1 agrl1101_mgt_7008_1        rc_strow_g     up_down_slope              null              null     up_down_slope              null              null              null              null              null