ls_unit.def: written by SWAT+ editor v2.1.0 on 2026-01-19 18:47 for SWAT+ rev.2.1.4
15136
      id              name          area  elem_tot  elements  
       1          rtu00001       2.82425         1         1  
       2          rtu00002       0.79238         1         2  
       3          rtu00003       2.72767         1         3  
       4          rtu00004       0.60064         1         4  
       5          rtu00005       3.90140         1         5  
       6          rtu00006       3.39339         1         6  
       7          rtu00007       0.31247         1         7  
       8          rtu00008       3.75104         1         8  
       9          rtu00009       0.59939         1         9  
      10          rtu00010       2.33632         1        10  
      11          rtu00011       1.58734         1        11  
      12          rtu00012       4.53544         1        12  
      13          rtu00013       0.73276         1        13  
      14          rtu00014       0.48462         1        14  
      15          rtu00015       3.59862         1        15  
      16          rtu00016       0.70942         1        16  
      17          rtu00017       0.63641         1        17  
      18          rtu00018       2.14133         1        18  
      19          rtu00019       8.79986         1        19  
      20          rtu00020       1.19958         1        20  
      21          rtu00021       0.71956         1        21  
      22          rtu00022       0.34507         1        22  
      23          rtu00023       1.45244         1        23  
      24          rtu00024       0.57060         1        24  
      25          rtu00025       0.54663         1        25  
      26          rtu00026       7.71941         1        26  
      27          rtu00027       0.78824         1        27  
      28          rtu00028       0.68090         1        28  
      29          rtu00029      33.05767         1        29  
      30          rtu00030       0.42672         1        30  
      31          rtu00031       5.48992         1        31  
      32          rtu00032       0.48451         1        32  
      33          rtu00033       1.73697         1        33  
      34          rtu00034       1.67802         1        34  
      35          rtu00035       1.26134         1        35  
      36          rtu00036       3.29930         1        36  
      37          rtu00037      19.55584         1        37  
      38          rtu00038       0.64992         1        38  
      39          rtu00039       2.26156         1        39  
      40          rtu00040       0.58255         1        40  
      41          rtu00041       2.60340         1        41  
      42          rtu00042       0.98373         1        42  
      43          rtu00043       0.61749         1        43  
      44          rtu00044       0.86558         1        44  
      45          rtu00045       2.22766         1        45  
      46          rtu00046       1.44819         1        46  
      47          rtu00047       1.15534         1        47  
      48          rtu00048       0.60733         1        48  
      49          rtu00049       4.92036         1        49  
      50          rtu00050       0.33632         1        50  
      51          rtu00051       1.89205         1        51  
      52          rtu00052       0.32518         1        52  
      53          rtu00053      21.25320         1        53  
      54          rtu00054       2.25682         1        54  
      55          rtu00055       2.10472         1        55  
      56          rtu00056       0.70079         1        56  
      57          rtu00057       0.50471         1        57  
      58          rtu00058       0.60790         1        58  
      59          rtu00059       2.77168         1        59  
      60          rtu00060       0.82620         1        60  
      61          rtu00061       0.71428         1        61  
      62          rtu00062       0.46341         1        62  
      63          rtu00063       0.99455         1        63  
      64          rtu00064       3.15935         1        64  
      65          rtu00065       0.93941         1        65  
      66          rtu00066       0.48404         1        66  
      67          rtu00067       0.34533         1        67  
      68          rtu00068       2.04728         1        68  
      69          rtu00069       0.56557         1        69  
      70          rtu00070       5.89060         1        70  
      71          rtu00071      10.22552         1        71  
      72          rtu00072       2.33478         1        72  
      73          rtu00073       2.59673         1        73  
      74          rtu00074       3.12655         1        74  
      75          rtu00075       0.33242         1        75  
      76          rtu00076       0.62312         1        76  
      77          rtu00077       0.95647         1        77  
      78          rtu00078       2.23061         1        78  
      79          rtu00079       0.65244         1        79  
      80          rtu00080       2.53607         1        80  
      81          rtu00081       0.41621         1        81  
      82          rtu00082       9.75169         1        82  
      83          rtu00083       0.69204         1        83  
      84          rtu00084       6.61506         1        84  
      85          rtu00085       0.66918         1        85  
      86          rtu00086       0.40603         1        86  
      87          rtu00087       7.40220         1        87  
      88          rtu00088      13.73061         1        88  
      89          rtu00089      12.55058         1        89  
      90          rtu00090       0.35626         1        90  
      91          rtu00091       3.30962         1        91  
      92          rtu00092       4.11617         1        92  
      93          rtu00093       0.59230         1        93  
      94          rtu00094       1.45709         1        94  
      95          rtu00095       0.94652         1        95  
      96          rtu00096       0.93904         1        96  
      97          rtu00097       3.91333         1        97  
      98          rtu00098       0.42904         1        98  
      99          rtu00099       9.29353         1        99  
     100          rtu00100       0.99066         1       100  
     101          rtu00101       2.85069         1       101  
     102          rtu00102       1.19458         1       102  
     103          rtu00103       0.32024         1       103  
     104          rtu00104       0.43279         1       104  
     105          rtu00105       2.82520         1       105  
     106          rtu00106       0.34499         1       106  
     107          rtu00107       0.73261         1       107  
     108          rtu00108       3.59817         1       108  
     109          rtu00109       3.87894         1       109  
     110          rtu00110       0.33751         1       110  
     111          rtu00111       0.47194         1       111  
     112          rtu00112       7.46009         1       112  
     113          rtu00113       0.32341         1       113  
     114          rtu00114       0.75700         1       114  
     115          rtu00115       1.98706         1       115  
     116          rtu00116       1.68479         1       116  
     117          rtu00117       4.92910         1       117  
     118          rtu00118       2.40839         1       118  
     119          rtu00119       3.39503         1       119  
     120          rtu00120       0.66741         1       120  
     121          rtu00121       2.38419         1       121  
     122          rtu00122       6.92404         1       122  
     123          rtu00123       3.56544         1       123  
     124          rtu00124       1.34094         1       124  
     125          rtu00125       0.47590         1       125  
     126          rtu00126       0.81594         1       126  
     127          rtu00127       2.32205         1       127  
     128          rtu00128       7.25717         1       128  
     129          rtu00129       4.81476         1       129  
     130          rtu00130       0.90145         1       130  
     131          rtu00131       1.51023         1       131  
     132          rtu00132       4.78464         1       132  
     133          rtu00133       0.63193         1       133  
     134          rtu00134      42.70584         1       134  
     135          rtu00135       1.47526         1       135  
     136          rtu00136       2.17664         1       136  
     137          rtu00137      14.71536         1       137  
     138          rtu00138       4.25700         1       138  
     139          rtu00139       0.65335         1       139  
     140          rtu00140       0.31627         1       140  
     141          rtu00141       0.54389         1       141  
     142          rtu00142       4.43567         1       142  
     143          rtu00143       3.59736         1       143  
     144          rtu00144       0.53842         1       144  
     145          rtu00145       1.02804         1       145  
     146          rtu00146       0.86436         1       146  
     147          rtu00147       4.57911         1       147  
     148          rtu00148       8.17958         1       148  
     149          rtu00149       0.31118         1       149  
     150          rtu00150       0.32757         1       150  
     151          rtu00151       1.04899         1       151  
     152          rtu00152       0.49275         1       152  
     153          rtu00153       0.54543         1       153  
     154          rtu00154       6.99908         1       154  
     155          rtu00155       2.56370         1       155  
     156          rtu00156       0.66043         1       156  
     157          rtu00157       0.34541         1       157  
     158          rtu00158       1.67067         1       158  
     159          rtu00159       0.87887         1       159  
     160          rtu00160       3.10073         1       160  
     161          rtu00161       3.96572         1       161  
     162          rtu00162       5.62553         1       162  
     163          rtu00163      34.07897         1       163  
     164          rtu00164       2.70757         1       164  
     165          rtu00165      16.90164         1       165  
     166          rtu00166       1.19583         1       166  
     167          rtu00167       0.76729         1       167  
     168          rtu00168       2.67305         1       168  
     169          rtu00169       4.34009         1       169  
     170          rtu00170       7.88902         1       170  
     171          rtu00171       1.16744         1       171  
     172          rtu00172       8.75247         1       172  
     173          rtu00173       0.31680         1       173  
     174          rtu00174       1.30847         1       174  
     175          rtu00175       0.32306         1       175  
     176          rtu00176       0.32153         1       176  
     177          rtu00177       1.72739         1       177  
     178          rtu00178       2.00601         1       178  
     179          rtu00179       2.77510         1       179  
     180          rtu00180       4.44988         1       180  
     181          rtu00181       3.02272         1       181  
     182          rtu00182       0.35420         1       182  
     183          rtu00183       1.27349         1       183  
     184          rtu00184      23.11997         1       184  
     185          rtu00185      27.18681         1       185  
     186          rtu00186       1.51003         1       186  
     187          rtu00187      21.58320         1       187  
     188          rtu00188       1.89799         1       188  
     189          rtu00189       6.43058         1       189  
     190          rtu00190      16.79127         1       190  
     191          rtu00191       0.76830         1       191  
     192          rtu00192       5.82720         1       192  
     193          rtu00193       8.88878         1       193  
     194          rtu00194       2.18501         1       194  
     195          rtu00195       0.69094         1       195  
     196          rtu00196       0.60262         1       196  
     197          rtu00197       1.88225         1       197  
     198          rtu00198       0.38622         1       198  
     199          rtu00199       3.84570         1       199  
     200          rtu00200      15.56735         1       200  
     201          rtu00201      12.41858         1       201  
     202          rtu00202       0.30067         1       202  
     203          rtu00203      49.12293         1       203  
     204          rtu00204       1.65315         1       204  
     205          rtu00205       2.94249         1       205  
     206          rtu00206       1.53183         1       206  
     207          rtu00207       2.34521         1       207  
     208          rtu00208      11.34801         1       208  
     209          rtu00209       1.29118         1       209  
     210          rtu00210       2.23006         1       210  
     211          rtu00211       1.08782         1       211  
     212          rtu00212      12.73807         1       212  
     213          rtu00213       4.05163         1       213  
     214          rtu00214       2.59500         1       214  
     215          rtu00215       0.58313         1       215  
     216          rtu00216       1.52730         1       216  
     217          rtu00217       0.35932         1       217  
     218          rtu00218       1.83483         1       218  
     219          rtu00219       0.80904         1       219  
     220          rtu00220       0.50814         1       220  
     221          rtu00221      52.63209         1       221  
     222          rtu00222       7.26730         1       222  
     223          rtu00223      32.80419         1       223  
     224          rtu00224       2.68035         1       224  
     225          rtu00225       9.49373         1       225  
     226          rtu00226       9.93892         1       226  
     227          rtu00227       7.91048         1       227  
     228          rtu00228      18.17983         1       228  
     229          rtu00229       0.87775         1       229  
     230          rtu00230       6.29274         1       230  
     231          rtu00231       1.07261         1       231  
     232          rtu00232       6.84652         1       232  
     233          rtu00233       2.38385         1       233  
     234          rtu00234       0.46385         1       234  
     235          rtu00235       0.70336         1       235  
     236          rtu00236       0.95608         1       236  
     237          rtu00237       0.85915         1       237  
     238          rtu00238       0.33723         1       238  
     239          rtu00239       1.39517         1       239  
     240          rtu00240       0.47754         1       240  
     241          rtu00241       2.36594         1       241  
     242          rtu00242       0.36186         1       242  
     243          rtu00243       3.03915         1       243  
     244          rtu00244       0.44193         1       244  
     245          rtu00245       0.51414         1       245  
     246          rtu00246       0.72456         1       246  
     247          rtu00247      29.99062         1       247  
     248          rtu00248       7.26322         1       248  
     249          rtu00249       2.14916         1       249  
     250          rtu00250       1.74264         1       250  
     251          rtu00251      14.70285         1       251  
     252          rtu00252       0.41521         1       252  
     253          rtu00253       0.60037         1       253  
     254          rtu00254       0.38029         1       254  
     255          rtu00255       0.49742         1       255  
     256          rtu00256       0.54478         1       256  
     257          rtu00257       0.47063         1       257  
     258          rtu00258       0.34771         1       258  
     259          rtu00259       0.63197         1       259  
     260          rtu00260       0.30056         1       260  
     261          rtu00261       0.46516         1       261  
     262          rtu00262       0.81348         1       262  
     263          rtu00263       3.17649         1       263  
     264          rtu00264       0.49287         1       264  
     265          rtu00265       4.01008         1       265  
     266          rtu00266       3.78920         1       266  
     267          rtu00267       7.41350         1       267  
     268          rtu00268       6.52139         1       268  
     269          rtu00269       1.40181         1       269  
     270          rtu00270       1.32106         1       270  
     271          rtu00271       2.29873         1       271  
     272          rtu00272       7.45273         1       272  
     273          rtu00273       1.48426         1       273  
     274          rtu00274       3.31575         1       274  
     275          rtu00275       1.38586         1       275  
     276          rtu00276       2.05346         1       276  
     277          rtu00277       1.65304         1       277  
     278          rtu00278       0.41240         1       278  
     279          rtu00279       1.16020         1       279  
     280          rtu00280       2.57910         1       280  
     281          rtu00281       7.80171         1       281  
     282          rtu00282       2.61449         1       282  
     283          rtu00283       2.98570         1       283  
     284          rtu00284      12.83222         1       284  
     285          rtu00285       1.06898         1       285  
     286          rtu00286       1.00030         1       286  
     287          rtu00287       1.26115         1       287  
     288          rtu00288       3.17959         1       288  
     289          rtu00289       1.40399         1       289  
     290          rtu00290       2.29014         1       290  
     291          rtu00291       7.80262         1       291  
     292          rtu00292       3.97396         1       292  
     293          rtu00293       5.32161         1       293  
     294          rtu00294       5.69331         1       294  
     295          rtu00295       6.93266         1       295  
     296          rtu00296       2.01938         1       296  
     297          rtu00297      13.96068         1       297  
     298          rtu00298       7.92596         1       298  
     299          rtu00299       2.96865         1       299  
     300          rtu00300      10.88282         1       300  
     301          rtu00301       3.29875         1       301  
     302          rtu00302      17.54882         1       302  
     303          rtu00303       4.59345         1       303  
     304          rtu00304      32.41429         1       304  
     305          rtu00305      10.99293         1       305  
     306          rtu00306       4.06714         1       306  
     307          rtu00307      11.06693         1       307  
     308          rtu00308       5.68004         1       308  
     309          rtu00309      17.97849         1       309  
     310          rtu00310       0.56875         1       310  
     311          rtu00311       1.02844         1       311  
     312          rtu00312       1.09565         1       312  
     313          rtu00313       0.56957         1       313  
     314          rtu00314       9.63502         1       314  
     315          rtu00315       7.39656         1       315  
     316          rtu00316       1.90648         1       316  
     317          rtu00317       3.40388         1       317  
     318          rtu00318       1.90733         1       318  
     319          rtu00319       0.44329         1       319  
     320          rtu00320       9.26293         1       320  
     321          rtu00321       0.48085         1       321  
     322          rtu00322      14.65679         1       322  
     323          rtu00323       1.23810         1       323  
     324          rtu00324       0.77293         1       324  
     325          rtu00325       1.54194         1       325  
     326          rtu00326       9.88104         1       326  
     327          rtu00327       1.59182         1       327  
     328          rtu00328       1.75900         1       328  
     329          rtu00329       6.30023         1       329  
     330          rtu00330       0.58007         1       330  
     331          rtu00331       0.70161         1       331  
     332          rtu00332       3.27807         1       332  
     333          rtu00333       0.73751         1       333  
     334          rtu00334       4.92258         1       334  
     335          rtu00335       0.55319         1       335  
     336          rtu00336      68.47471         1       336  
     337          rtu00337       2.61634         1       337  
     338          rtu00338       1.31937         1       338  
     339          rtu00339       2.97296         1       339  
     340          rtu00340      19.80150         1       340  
     341          rtu00341       2.14551         1       341  
     342          rtu00342      25.48070         1       342  
     343          rtu00343       1.64620         1       343  
     344          rtu00344       0.44042         1       344  
     345          rtu00345       2.68946         1       345  
     346          rtu00346       4.45190         1       346  
     347          rtu00347       6.98336         1       347  
     348          rtu00348       1.69962         1       348  
     349          rtu00349      11.78815         1       349  
     350          rtu00350       2.05830         1       350  
     351          rtu00351       0.53838         1       351  
     352          rtu00352       1.24465         1       352  
     353          rtu00353       1.08523         1       353  
     354          rtu00354       4.34636         1       354  
     355          rtu00355       1.52073         1       355  
     356          rtu00356       0.41992         1       356  
     357          rtu00357       0.57324         1       357  
     358          rtu00358       0.55528         1       358  
     359          rtu00359       1.13006         1       359  
     360          rtu00360       0.40272         1       360  
     361          rtu00361       1.47851         1       361  
     362          rtu00362       0.55295         1       362  
     363          rtu00363       5.58111         1       363  
     364          rtu00364       0.77515         1       364  
     365          rtu00365       0.37080         1       365  
     366          rtu00366       0.35003         1       366  
     367          rtu00367       0.85679         1       367  
     368          rtu00368       1.17282         1       368  
     369          rtu00369      12.30612         1       369  
     370          rtu00370       1.37157         1       370  
     371          rtu00371       5.64090         1       371  
     372          rtu00372       0.60131         1       372  
     373          rtu00373       1.23860         1       373  
     374          rtu00374       0.48911         1       374  
     375          rtu00375       5.11944         1       375  
     376          rtu00376       1.03869         1       376  
     377          rtu00377       0.48157         1       377  
     378          rtu00378       3.46168         1       378  
     379          rtu00379       3.08193         1       379  
     380          rtu00380       0.44413         1       380  
     381          rtu00381       1.50125         1       381  
     382          rtu00382       1.78108         1       382  
     383          rtu00383       0.62473         1       383  
     384          rtu00384       0.32844         1       384  
     385          rtu00385       1.56352         1       385  
     386          rtu00386       3.02640         1       386  
     387          rtu00387      17.90737         1       387  
     388          rtu00388       0.42856         1       388  
     389          rtu00389       3.96949         1       389  
     390          rtu00390       2.30867         1       390  
     391          rtu00391       1.37937         1       391  
     392          rtu00392       1.70378         1       392  
     393          rtu00393       0.44899         1       393  
     394          rtu00394       1.37206         1       394  
     395          rtu00395      15.16086         1       395  
     396          rtu00396       6.48474         1       396  
     397          rtu00397       0.39835         1       397  
     398          rtu00398       0.49211         1       398  
     399          rtu00399       5.46391         1       399  
     400          rtu00400       0.76080         1       400  
     401          rtu00401       0.43223         1       401  
     402          rtu00402       6.22121         1       402  
     403          rtu00403      11.17663         1       403  
     404          rtu00404       0.48076         1       404  
     405          rtu00405       1.14921         1       405  
     406          rtu00406       0.46162         1       406  
     407          rtu00407       2.52650         1       407  
     408          rtu00408       0.80816         1       408  
     409          rtu00409      33.85483         1       409  
     410          rtu00410       0.35847         1       410  
     411          rtu00411       0.70488         1       411  
     412          rtu00412      61.94960         1       412  
     413          rtu00413       2.19111         1       413  
     414          rtu00414       0.87277         1       414  
     415          rtu00415       0.94614         1       415  
     416          rtu00416      44.32336         1       416  
     417          rtu00417       0.54992         1       417  
     418          rtu00418       0.99811         1       418  
     419          rtu00419      13.64003         1       419  
     420          rtu00420       0.30865         1       420  
     421          rtu00421      12.97347         1       421  
     422          rtu00422       5.59357         1       422  
     423          rtu00423       0.46790         1       423  
     424          rtu00424       1.97376         1       424  
     425          rtu00425      15.07522         1       425  
     426          rtu00426       2.29596         1       426  
     427          rtu00427       0.94808         1       427  
     428          rtu00428       0.75224         1       428  
     429          rtu00429       4.28858         1       429  
     430          rtu00430       2.28205         1       430  
     431          rtu00431       5.12952         1       431  
     432          rtu00432       1.28521         1       432  
     433          rtu00433       0.57644         1       433  
     434          rtu00434       3.67403         1       434  
     435          rtu00435       4.65265         1       435  
     436          rtu00436       4.92275         1       436  
     437          rtu00437       0.53039         1       437  
     438          rtu00438       4.94764         1       438  
     439          rtu00439       1.68865         1       439  
     440          rtu00440       1.35095         1       440  
     441          rtu00441      10.27449         1       441  
     442          rtu00442       3.09248         1       442  
     443          rtu00443       1.23035         1       443  
     444          rtu00444       0.92049         1       444  
     445          rtu00445       3.35545         1       445  
     446          rtu00446       0.39762         1       446  
     447          rtu00447       0.68116         1       447  
     448          rtu00448       1.03082         1       448  
     449          rtu00449       0.64267         1       449  
     450          rtu00450       1.08009         1       450  
     451          rtu00451       0.32234         1       451  
     452          rtu00452       0.79389         1       452  
     453          rtu00453       2.74509         1       453  
     454          rtu00454      18.21910         1       454  
     455          rtu00455       1.90246         1       455  
     456          rtu00456       0.53521         1       456  
     457          rtu00457       1.14180         1       457  
     458          rtu00458       0.90434         1       458  
     459          rtu00459       0.82092         1       459  
     460          rtu00460       2.07340         1       460  
     461          rtu00461       6.55620         1       461  
     462          rtu00462       0.60513         1       462  
     463          rtu00463       2.28395         1       463  
     464          rtu00464       5.44895         1       464  
     465          rtu00465       1.10050         1       465  
     466          rtu00466       0.51400         1       466  
     467          rtu00467       1.54636         1       467  
     468          rtu00468       1.79924         1       468  
     469          rtu00469       0.36517         1       469  
     470          rtu00470       0.36331         1       470  
     471          rtu00471       0.39528         1       471  
     472          rtu00472       1.78936         1       472  
     473          rtu00473       0.31793         1       473  