ls_unit.ele: written by SWAT+ editor v2.1.0 on 2026-01-19 18:47 for SWAT+ rev.2.1.4
      id  name                   obj_typ  obj_typ_no      bsn_frac      sub_frac      reg_frac  
       1  hru00001                   hru           1     3.1757E-5       1.00000       0.00000  
       2  hru00002                   hru           2     8.9100E-6       1.00000       0.00000  
       3  hru00003                   hru           3     3.0671E-5       1.00000       0.00000  
       4  hru00004                   hru           4     6.7540E-6       1.00000       0.00000  
       5  hru00005                   hru           5     4.3869E-5       1.00000       0.00000  
       6  hru00006                   hru           6     3.8157E-5       1.00000       0.00000  
       7  hru00007                   hru           7     3.5136E-6       1.00000       0.00000  
       8  hru00008                   hru           8     4.2179E-5       1.00000       0.00000  
       9  hru00009                   hru           9     6.7398E-6       1.00000       0.00000  
      10  hru00010                   hru          10     2.6271E-5       1.00000       0.00000  
      11  hru00011                   hru          11     1.7849E-5       1.00000       0.00000  
      12  hru00012                   hru          12     5.0999E-5       1.00000       0.00000  
      13  hru00013                   hru          13     8.2395E-6       1.00000       0.00000  
      14  hru00014                   hru          14     5.4493E-6       1.00000       0.00000  
      15  hru00015                   hru          15     4.0465E-5       1.00000       0.00000  
      16  hru00016                   hru          16     7.9771E-6       1.00000       0.00000  
      17  hru00017                   hru          17     7.1561E-6       1.00000       0.00000  
      18  hru00018                   hru          18     2.4078E-5       1.00000       0.00000  
      19  hru00019                   hru          19     9.8950E-5       1.00000       0.00000  
      20  hru00020                   hru          20     1.3489E-5       1.00000       0.00000  
      21  hru00021                   hru          21     8.0912E-6       1.00000       0.00000  
      22  hru00022                   hru          22     3.8801E-6       1.00000       0.00000  
      23  hru00023                   hru          23     1.6332E-5       1.00000       0.00000  
      24  hru00024                   hru          24     6.4161E-6       1.00000       0.00000  
      25  hru00025                   hru          25     6.1466E-6       1.00000       0.00000  
      26  hru00026                   hru          26     8.6801E-5       1.00000       0.00000  
      27  hru00027                   hru          27     8.8634E-6       1.00000       0.00000  
      28  hru00028                   hru          28     7.6564E-6       1.00000       0.00000  
      29  hru00029                   hru          29     3.7172E-4       1.00000       0.00000  
      30  hru00030                   hru          30     4.7983E-6       1.00000       0.00000  
      31  hru00031                   hru          31     6.1732E-5       1.00000       0.00000  
      32  hru00032                   hru          32     5.4481E-6       1.00000       0.00000  
      33  hru00033                   hru          33     1.9531E-5       1.00000       0.00000  
      34  hru00034                   hru          34     1.8869E-5       1.00000       0.00000  
      35  hru00035                   hru          35     1.4183E-5       1.00000       0.00000  
      36  hru00036                   hru          36     3.7099E-5       1.00000       0.00000  
      37  hru00037                   hru          37     2.1990E-4       1.00000       0.00000  
      38  hru00038                   hru          38     7.3081E-6       1.00000       0.00000  
      39  hru00039                   hru          39     2.5430E-5       1.00000       0.00000  
      40  hru00040                   hru          40     6.5505E-6       1.00000       0.00000  
      41  hru00041                   hru          41     2.9274E-5       1.00000       0.00000  
      42  hru00042                   hru          42     1.1062E-5       1.00000       0.00000  
      43  hru00043                   hru          43     6.9434E-6       1.00000       0.00000  
      44  hru00044                   hru          44     9.7331E-6       1.00000       0.00000  
      45  hru00045                   hru          45     2.5049E-5       1.00000       0.00000  
      46  hru00046                   hru          46     1.6284E-5       1.00000       0.00000  
      47  hru00047                   hru          47     1.2991E-5       1.00000       0.00000  
      48  hru00048                   hru          48     6.8292E-6       1.00000       0.00000  
      49  hru00049                   hru          49     5.5327E-5       1.00000       0.00000  
      50  hru00050                   hru          50     3.7817E-6       1.00000       0.00000  
      51  hru00051                   hru          51     2.1275E-5       1.00000       0.00000  
      52  hru00052                   hru          52     3.6565E-6       1.00000       0.00000  
      53  hru00053                   hru          53     2.3898E-4       1.00000       0.00000  
      54  hru00054                   hru          54     2.5377E-5       1.00000       0.00000  
      55  hru00055                   hru          55     2.3667E-5       1.00000       0.00000  
      56  hru00056                   hru          56     7.8801E-6       1.00000       0.00000  
      57  hru00057                   hru          57     5.6753E-6       1.00000       0.00000  
      58  hru00058                   hru          58     6.8356E-6       1.00000       0.00000  
      59  hru00059                   hru          59     3.1166E-5       1.00000       0.00000  
      60  hru00060                   hru          60     9.2903E-6       1.00000       0.00000  
      61  hru00061                   hru          61     8.0318E-6       1.00000       0.00000  
      62  hru00062                   hru          62     5.2108E-6       1.00000       0.00000  
      63  hru00063                   hru          63     1.1183E-5       1.00000       0.00000  
      64  hru00064                   hru          64     3.5525E-5       1.00000       0.00000  
      65  hru00065                   hru          65     1.0563E-5       1.00000       0.00000  
      66  hru00066                   hru          66     5.4428E-6       1.00000       0.00000  
      67  hru00067                   hru          67     3.8831E-6       1.00000       0.00000  
      68  hru00068                   hru          68     2.3021E-5       1.00000       0.00000  
      69  hru00069                   hru          69     6.3596E-6       1.00000       0.00000  
      70  hru00070                   hru          70     6.6237E-5       1.00000       0.00000  
      71  hru00071                   hru          71     1.1498E-4       1.00000       0.00000  
      72  hru00072                   hru          72     2.6253E-5       1.00000       0.00000  
      73  hru00073                   hru          73     2.9199E-5       1.00000       0.00000  
      74  hru00074                   hru          74     3.5157E-5       1.00000       0.00000  
      75  hru00075                   hru          75     3.7379E-6       1.00000       0.00000  
      76  hru00076                   hru          76     7.0067E-6       1.00000       0.00000  
      77  hru00077                   hru          77     1.0755E-5       1.00000       0.00000  
      78  hru00078                   hru          78     2.5082E-5       1.00000       0.00000  
      79  hru00079                   hru          79     7.3363E-6       1.00000       0.00000  
      80  hru00080                   hru          80     2.8517E-5       1.00000       0.00000  
      81  hru00081                   hru          81     4.6801E-6       1.00000       0.00000  
      82  hru00082                   hru          82     1.0965E-4       1.00000       0.00000  
      83  hru00083                   hru          83     7.7817E-6       1.00000       0.00000  
      84  hru00084                   hru          84     7.4383E-5       1.00000       0.00000  
      85  hru00085                   hru          85     7.5246E-6       1.00000       0.00000  
      86  hru00086                   hru          86     4.5657E-6       1.00000       0.00000  
      87  hru00087                   hru          87     8.3234E-5       1.00000       0.00000  
      88  hru00088                   hru          88     1.5439E-4       1.00000       0.00000  
      89  hru00089                   hru          89     1.4113E-4       1.00000       0.00000  
      90  hru00090                   hru          90     4.0060E-6       1.00000       0.00000  
      91  hru00091                   hru          91     3.7215E-5       1.00000       0.00000  
      92  hru00092                   hru          92     4.6284E-5       1.00000       0.00000  
      93  hru00093                   hru          93     6.6601E-6       1.00000       0.00000  
      94  hru00094                   hru          94     1.6384E-5       1.00000       0.00000  
      95  hru00095                   hru          95     1.0643E-5       1.00000       0.00000  
      96  hru00096                   hru          96     1.0559E-5       1.00000       0.00000  
      97  hru00097                   hru          97     4.4004E-5       1.00000       0.00000  
      98  hru00098                   hru          98     4.8243E-6       1.00000       0.00000  
      99  hru00099                   hru          99     1.0450E-4       1.00000       0.00000  
     100  hru00100                   hru         100     1.1140E-5       1.00000       0.00000  
     101  hru00101                   hru         101     3.2055E-5       1.00000       0.00000  
     102  hru00102                   hru         102     1.3432E-5       1.00000       0.00000  
     103  hru00103                   hru         103     3.6010E-6       1.00000       0.00000  
     104  hru00104                   hru         104     4.8665E-6       1.00000       0.00000  
     105  hru00105                   hru         105     3.1768E-5       1.00000       0.00000  
     106  hru00106                   hru         106     3.8793E-6       1.00000       0.00000  
     107  hru00107                   hru         107     8.2378E-6       1.00000       0.00000  
     108  hru00108                   hru         108     4.0460E-5       1.00000       0.00000  
     109  hru00109                   hru         109     4.3617E-5       1.00000       0.00000  
     110  hru00110                   hru         110     3.7951E-6       1.00000       0.00000  
     111  hru00111                   hru         111     5.3068E-6       1.00000       0.00000  
     112  hru00112                   hru         112     8.3885E-5       1.00000       0.00000  
     113  hru00113                   hru         113     3.6366E-6       1.00000       0.00000  
     114  hru00114                   hru         114     8.5122E-6       1.00000       0.00000  
     115  hru00115                   hru         115     2.2344E-5       1.00000       0.00000  
     116  hru00116                   hru         116     1.8945E-5       1.00000       0.00000  
     117  hru00117                   hru         117     5.5425E-5       1.00000       0.00000  
     118  hru00118                   hru         118     2.7081E-5       1.00000       0.00000  
     119  hru00119                   hru         119     3.8176E-5       1.00000       0.00000  
     120  hru00120                   hru         120     7.5047E-6       1.00000       0.00000  
     121  hru00121                   hru         121     2.6809E-5       1.00000       0.00000  
     122  hru00122                   hru         122     7.7858E-5       1.00000       0.00000  
     123  hru00123                   hru         123     4.0092E-5       1.00000       0.00000  
     124  hru00124                   hru         124     1.5078E-5       1.00000       0.00000  
     125  hru00125                   hru         125     5.3513E-6       1.00000       0.00000  
     126  hru00126                   hru         126     9.1748E-6       1.00000       0.00000  
     127  hru00127                   hru         127     2.6110E-5       1.00000       0.00000  
     128  hru00128                   hru         128     8.1604E-5       1.00000       0.00000  
     129  hru00129                   hru         129     5.4140E-5       1.00000       0.00000  
     130  hru00130                   hru         130     1.0136E-5       1.00000       0.00000  
     131  hru00131                   hru         131     1.6982E-5       1.00000       0.00000  
     132  hru00132                   hru         132     5.3801E-5       1.00000       0.00000  
     133  hru00133                   hru         133     7.1058E-6       1.00000       0.00000  
     134  hru00134                   hru         134     4.8021E-4       1.00000       0.00000  
     135  hru00135                   hru         135     1.6589E-5       1.00000       0.00000  
     136  hru00136                   hru         136     2.4475E-5       1.00000       0.00000  
     137  hru00137                   hru         137     1.6547E-4       1.00000       0.00000  
     138  hru00138                   hru         138     4.7868E-5       1.00000       0.00000  
     139  hru00139                   hru         139     7.3467E-6       1.00000       0.00000  
     140  hru00140                   hru         140     3.5564E-6       1.00000       0.00000  
     141  hru00141                   hru         141     6.1158E-6       1.00000       0.00000  
     142  hru00142                   hru         142     4.9877E-5       1.00000       0.00000  
     143  hru00143                   hru         143     4.0451E-5       1.00000       0.00000  
     144  hru00144                   hru         144     6.0543E-6       1.00000       0.00000  
     145  hru00145                   hru         145     1.1560E-5       1.00000       0.00000  
     146  hru00146                   hru         146     9.7193E-6       1.00000       0.00000  
     147  hru00147                   hru         147     5.1490E-5       1.00000       0.00000  
     148  hru00148                   hru         148     9.1976E-5       1.00000       0.00000  
     149  hru00149                   hru         149     3.4991E-6       1.00000       0.00000  
     150  hru00150                   hru         150     3.6833E-6       1.00000       0.00000  
     151  hru00151                   hru         151     1.1795E-5       1.00000       0.00000  
     152  hru00152                   hru         152     5.5407E-6       1.00000       0.00000  
     153  hru00153                   hru         153     6.1331E-6       1.00000       0.00000  
     154  hru00154                   hru         154     7.8701E-5       1.00000       0.00000  
     155  hru00155                   hru         155     2.8828E-5       1.00000       0.00000  
     156  hru00156                   hru         156     7.4262E-6       1.00000       0.00000  
     157  hru00157                   hru         157     3.8839E-6       1.00000       0.00000  
     158  hru00158                   hru         158     1.8786E-5       1.00000       0.00000  
     159  hru00159                   hru         159     9.8825E-6       1.00000       0.00000  
     160  hru00160                   hru         160     3.4866E-5       1.00000       0.00000  
     161  hru00161                   hru         161     4.4593E-5       1.00000       0.00000  
     162  hru00162                   hru         162     6.3256E-5       1.00000       0.00000  
     163  hru00163                   hru         163     3.8320E-4       1.00000       0.00000  
     164  hru00164                   hru         164     3.0445E-5       1.00000       0.00000  
     165  hru00165                   hru         165     1.9005E-4       1.00000       0.00000  
     166  hru00166                   hru         166     1.3447E-5       1.00000       0.00000  
     167  hru00167                   hru         167     8.6278E-6       1.00000       0.00000  
     168  hru00168                   hru         168     3.0057E-5       1.00000       0.00000  
     169  hru00169                   hru         169     4.8802E-5       1.00000       0.00000  
     170  hru00170                   hru         170     8.8708E-5       1.00000       0.00000  
     171  hru00171                   hru         171     1.3127E-5       1.00000       0.00000  
     172  hru00172                   hru         172     9.8417E-5       1.00000       0.00000  
     173  hru00173                   hru         173     3.5623E-6       1.00000       0.00000  
     174  hru00174                   hru         174     1.4713E-5       1.00000       0.00000  
     175  hru00175                   hru         175     3.6326E-6       1.00000       0.00000  
     176  hru00176                   hru         176     3.6154E-6       1.00000       0.00000  
     177  hru00177                   hru         177     1.9424E-5       1.00000       0.00000  
     178  hru00178                   hru         178     2.2557E-5       1.00000       0.00000  
     179  hru00179                   hru         179     3.1205E-5       1.00000       0.00000  
     180  hru00180                   hru         180     5.0037E-5       1.00000       0.00000  
     181  hru00181                   hru         181     3.3989E-5       1.00000       0.00000  
     182  hru00182                   hru         182     3.9828E-6       1.00000       0.00000  
     183  hru00183                   hru         183     1.4320E-5       1.00000       0.00000  
     184  hru00184                   hru         184     2.5997E-4       1.00000       0.00000  
     185  hru00185                   hru         185     3.0570E-4       1.00000       0.00000  
     186  hru00186                   hru         186     1.6980E-5       1.00000       0.00000  
     187  hru00187                   hru         187     2.4269E-4       1.00000       0.00000  
     188  hru00188                   hru         188     2.1342E-5       1.00000       0.00000  
     189  hru00189                   hru         189     7.2309E-5       1.00000       0.00000  
     190  hru00190                   hru         190     1.8881E-4       1.00000       0.00000  
     191  hru00191                   hru         191     8.6392E-6       1.00000       0.00000  
     192  hru00192                   hru         192     6.5524E-5       1.00000       0.00000  
     193  hru00193                   hru         193     9.9950E-5       1.00000       0.00000  
     194  hru00194                   hru         194     2.4569E-5       1.00000       0.00000  
     195  hru00195                   hru         195     7.7693E-6       1.00000       0.00000  
     196  hru00196                   hru         196     6.7762E-6       1.00000       0.00000  
     197  hru00197                   hru         197     2.1165E-5       1.00000       0.00000  
     198  hru00198                   hru         198     4.3429E-6       1.00000       0.00000  
     199  hru00199                   hru         199     4.3243E-5       1.00000       0.00000  
     200  hru00200                   hru         200     1.7505E-4       1.00000       0.00000  
     201  hru00201                   hru         201     1.3964E-4       1.00000       0.00000  
     202  hru00202                   hru         202     3.3809E-6       1.00000       0.00000  
     203  hru00203                   hru         203     5.5236E-4       1.00000       0.00000  
     204  hru00204                   hru         204     1.8589E-5       1.00000       0.00000  
     205  hru00205                   hru         205     3.3087E-5       1.00000       0.00000  
     206  hru00206                   hru         206     1.7225E-5       1.00000       0.00000  
     207  hru00207                   hru         207     2.6371E-5       1.00000       0.00000  
     208  hru00208                   hru         208     1.2760E-4       1.00000       0.00000  
     209  hru00209                   hru         209     1.4519E-5       1.00000       0.00000  
     210  hru00210                   hru         210     2.5076E-5       1.00000       0.00000  
     211  hru00211                   hru         211     1.2232E-5       1.00000       0.00000  
     212  hru00212                   hru         212     1.4323E-4       1.00000       0.00000  
     213  hru00213                   hru         213     4.5559E-5       1.00000       0.00000  
     214  hru00214                   hru         214     2.9180E-5       1.00000       0.00000  
     215  hru00215                   hru         215     6.5570E-6       1.00000       0.00000  
     216  hru00216                   hru         216     1.7174E-5       1.00000       0.00000  
     217  hru00217                   hru         217     4.0404E-6       1.00000       0.00000  
     218  hru00218                   hru         218     2.0632E-5       1.00000       0.00000  
     219  hru00219                   hru         219     9.0973E-6       1.00000       0.00000  
     220  hru00220                   hru         220     5.7138E-6       1.00000       0.00000  
     221  hru00221                   hru         221     5.9182E-4       1.00000       0.00000  
     222  hru00222                   hru         222     8.1717E-5       1.00000       0.00000  
     223  hru00223                   hru         223     3.6887E-4       1.00000       0.00000  
     224  hru00224                   hru         224     3.0139E-5       1.00000       0.00000  
     225  hru00225                   hru         225     1.0675E-4       1.00000       0.00000  
     226  hru00226                   hru         226     1.1176E-4       1.00000       0.00000  
     227  hru00227                   hru         227     8.8950E-5       1.00000       0.00000  
     228  hru00228                   hru         228     2.0442E-4       1.00000       0.00000  
     229  hru00229                   hru         229     9.8699E-6       1.00000       0.00000  
     230  hru00230                   hru         230     7.0759E-5       1.00000       0.00000  
     231  hru00231                   hru         231     1.2061E-5       1.00000       0.00000  
     232  hru00232                   hru         232     7.6986E-5       1.00000       0.00000  
     233  hru00233                   hru         233     2.6805E-5       1.00000       0.00000  
     234  hru00234                   hru         234     5.2158E-6       1.00000       0.00000  
     235  hru00235                   hru         235     7.9090E-6       1.00000       0.00000  
     236  hru00236                   hru         236     1.0751E-5       1.00000       0.00000  
     237  hru00237                   hru         237     9.6608E-6       1.00000       0.00000  
     238  hru00238                   hru         238     3.7919E-6       1.00000       0.00000  
     239  hru00239                   hru         239     1.5688E-5       1.00000       0.00000  
     240  hru00240                   hru         240     5.3697E-6       1.00000       0.00000  
     241  hru00241                   hru         241     2.6604E-5       1.00000       0.00000  
     242  hru00242                   hru         242     4.0690E-6       1.00000       0.00000  
     243  hru00243                   hru         243     3.4174E-5       1.00000       0.00000  
     244  hru00244                   hru         244     4.9693E-6       1.00000       0.00000  
     245  hru00245                   hru         245     5.7812E-6       1.00000       0.00000  
     246  hru00246                   hru         246     8.1473E-6       1.00000       0.00000  
     247  hru00247                   hru         247     3.3723E-4       1.00000       0.00000  
     248  hru00248                   hru         248     8.1672E-5       1.00000       0.00000  
     249  hru00249                   hru         249     2.4166E-5       1.00000       0.00000  
     250  hru00250                   hru         250     1.9595E-5       1.00000       0.00000  
     251  hru00251                   hru         251     1.6533E-4       1.00000       0.00000  
     252  hru00252                   hru         252     4.6689E-6       1.00000       0.00000  
     253  hru00253                   hru         253     6.7509E-6       1.00000       0.00000  
     254  hru00254                   hru         254     4.2762E-6       1.00000       0.00000  
     255  hru00255                   hru         255     5.5933E-6       1.00000       0.00000  
     256  hru00256                   hru         256     6.1258E-6       1.00000       0.00000  
     257  hru00257                   hru         257     5.2920E-6       1.00000       0.00000  
     258  hru00258                   hru         258     3.9099E-6       1.00000       0.00000  
     259  hru00259                   hru         259     7.1062E-6       1.00000       0.00000  
     260  hru00260                   hru         260     3.3797E-6       1.00000       0.00000  
     261  hru00261                   hru         261     5.2305E-6       1.00000       0.00000  
     262  hru00262                   hru         262     9.1473E-6       1.00000       0.00000  
     263  hru00263                   hru         263     3.5718E-5       1.00000       0.00000  
     264  hru00264                   hru         264     5.5421E-6       1.00000       0.00000  
     265  hru00265                   hru         265     4.5092E-5       1.00000       0.00000  
     266  hru00266                   hru         266     4.2608E-5       1.00000       0.00000  
     267  hru00267                   hru         267     8.3361E-5       1.00000       0.00000  
     268  hru00268                   hru         268     7.3330E-5       1.00000       0.00000  
     269  hru00269                   hru         269     1.5763E-5       1.00000       0.00000  
     270  hru00270                   hru         270     1.4855E-5       1.00000       0.00000  
     271  hru00271                   hru         271     2.5848E-5       1.00000       0.00000  
     272  hru00272                   hru         272     8.3803E-5       1.00000       0.00000  
     273  hru00273                   hru         273     1.6690E-5       1.00000       0.00000  
     274  hru00274                   hru         274     3.7284E-5       1.00000       0.00000  
     275  hru00275                   hru         275     1.5583E-5       1.00000       0.00000  
     276  hru00276                   hru         276     2.3090E-5       1.00000       0.00000  
     277  hru00277                   hru         277     1.8588E-5       1.00000       0.00000  
     278  hru00278                   hru         278     4.6373E-6       1.00000       0.00000  
     279  hru00279                   hru         279     1.3046E-5       1.00000       0.00000  
     280  hru00280                   hru         280     2.9001E-5       1.00000       0.00000  
     281  hru00281                   hru         281     8.7727E-5       1.00000       0.00000  
     282  hru00282                   hru         282     2.9399E-5       1.00000       0.00000  
     283  hru00283                   hru         283     3.3573E-5       1.00000       0.00000  
     284  hru00284                   hru         284     1.4429E-4       1.00000       0.00000  
     285  hru00285                   hru         285     1.2020E-5       1.00000       0.00000  
     286  hru00286                   hru         286     1.1248E-5       1.00000       0.00000  
     287  hru00287                   hru         287     1.4181E-5       1.00000       0.00000  
     288  hru00288                   hru         288     3.5753E-5       1.00000       0.00000  
     289  hru00289                   hru         289     1.5787E-5       1.00000       0.00000  
     290  hru00290                   hru         290     2.5752E-5       1.00000       0.00000  
     291  hru00291                   hru         291     8.7737E-5       1.00000       0.00000  
     292  hru00292                   hru         292     4.4685E-5       1.00000       0.00000  
     293  hru00293                   hru         293     5.9839E-5       1.00000       0.00000  
     294  hru00294                   hru         294     6.4019E-5       1.00000       0.00000  
     295  hru00295                   hru         295     7.7955E-5       1.00000       0.00000  
     296  hru00296                   hru         296     2.2707E-5       1.00000       0.00000  
     297  hru00297                   hru         297     1.5698E-4       1.00000       0.00000  
     298  hru00298                   hru         298     8.9124E-5       1.00000       0.00000  
     299  hru00299                   hru         299     3.3381E-5       1.00000       0.00000  
     300  hru00300                   hru         300     1.2237E-4       1.00000       0.00000  
     301  hru00301                   hru         301     3.7093E-5       1.00000       0.00000  
     302  hru00302                   hru         302     1.9733E-4       1.00000       0.00000  
     303  hru00303                   hru         303     5.1651E-5       1.00000       0.00000  
     304  hru00304                   hru         304     3.6448E-4       1.00000       0.00000  
     305  hru00305                   hru         305     1.2361E-4       1.00000       0.00000  
     306  hru00306                   hru         306     4.5733E-5       1.00000       0.00000  
     307  hru00307                   hru         307     1.2444E-4       1.00000       0.00000  