object.cnt: written by SWAT+ editor v2.1.0 on 2026-01-19 18:46 for SWAT+ rev.2.1.4
name                   ls_area      tot_area       obj       hru      lhru       rtu       mfl       aqu       cha       res       rec      exco       dlr       can       pmp       out      lcha     aqu2d       hrd       wro  
PL_CREATE          88932.07501   88932.07501     30636     15136         0     15136         0         1         0       258         0         0         0         0         0         0       105         0         0         0  
