plant.ini: written by SWAT+ editor v2.1.0 on 2026-01-19 18:47 for SWAT+ rev.2.1.4 and edited with SWATfarmR 2.0.5 on 2026-01-20 00:29:32.302295
pcom_name          plt_cnt  rot_yr_ini          plt_name     lc_status      lai_init       bm_init      phu_init      plnt_pop      yrs_init      rsd_init  
frsd_comm                1           1
                                                    frsd             y             2         50000             0             0             1         10000
frse_comm                1           1
                                                    frse             y             2         50000             0             0             1         10000
frst_comm                1           1
                                                    frst             y             2         50000             0             0             1         10000
orcd_comm_1591_1         1           1
                                                    orcd             y             1          1000             0             0             1          1000
orcd_comm_1592_1         1           1
                                                    orcd             y             1          1000             0             0             1          1000
orcd_comm_1593_1         1           1
                                                    orcd             y             1          1000             0             0             1          1000
orcd_comm_1594_1         1           1
                                                    orcd             y             1          1000             0             0             1          1000
orcd_comm_1595_1         1           1
                                                    orcd             y             1          1000             0             0             1          1000
orcd_comm_1596_1         1           1
                                                    orcd             y             1          1000             0             0             1          1000
orcd_comm_1597_1         1           1
                                                    orcd             y             1          1000             0             0             1          1000
orcd_comm_1598_1         1           1
                                                    orcd             y             1          1000             0             0             1          1000
orcd_comm_1599_1         1           1
                                                    orcd             y             1          1000             0             0             1          1000
orcd_comm_1600_1         1           1
                                                    orcd             y             1          1000             0             0             1          1000
orcd_comm_1601_1         1           1
                                                    orcd             y             1          1000             0             0             1          1000
orcd_comm_1602_1         1           1
                                                    orcd             y             1          1000             0             0             1          1000
orcd_comm_1603_1         1           1
                                                    orcd             y             1          1000             0             0             1          1000
orcd_comm_1604_1         1           1
                                                    orcd             y             1          1000             0             0             1          1000
orcd_comm_1605_1         1           1
                                                    orcd             y             1          1000             0             0             1          1000
orcd_comm_1606_1         1           1
                                                    orcd             y             1          1000             0             0             1          1000
orcd_comm_1607_1         1           1
                                                    orcd             y             1          1000             0             0             1          1000
orcd_comm_1608_1         1           1
                                                    orcd             y             1          1000             0             0             1          1000
orcd_comm_1609_1         1           1
                                                    orcd             y             1          1000             0             0             1          1000
orcd_comm_1610_1         1           1
                                                    orcd             y             1          1000             0             0             1          1000
orcd_comm_1611_1         1           1
                                                    orcd             y             1          1000             0             0             1          1000
orcd_comm_1612_1         1           1
                                                    orcd             y             1          1000             0             0             1          1000
orcd_comm_1613_1         1           1
                                                    orcd             y             1          1000             0             0             1          1000
orcd_comm_1614_1         1           1
                                                    orcd             y             1          1000             0             0             1          1000
orcd_comm_1615_1         1           1
                                                    orcd             y             1          1000             0             0             1          1000
orcd_comm_1616_1         1           1
                                                    orcd             y             1          1000             0             0             1          1000
orcd_comm_1617_1         1           1
                                                    orcd             y             1          1000             0             0             1          1000
orcd_comm_1618_1         1           1
                                                    orcd             y             1          1000             0             0             1          1000
orcd_comm_1619_1         1           1
                                                    orcd             y             1          1000             0             0             1          1000
orcd_comm_1620_1         1           1
                                                    orcd             y             1          1000             0             0             1          1000
orcd_comm_1621_1         1           1
                                                    orcd             y             1          1000             0             0             1          1000
orcd_comm_1622_1         1           1
                                                    orcd             y             1          1000             0             0             1          1000
orcd_comm_1623_1         1           1
                                                    orcd             y             1          1000             0             0             1          1000
orcd_comm_1624_1         1           1
                                                    orcd             y             1          1000             0             0             1          1000
orcd_comm_1625_1         1           1
                                                    orcd             y             1          1000             0             0             1          1000
orcd_comm_1626_1         1           1
                                                    orcd             y             1          1000             0             0             1          1000
orcd_comm_1627_1         1           1
                                                    orcd             y             1          1000             0             0             1          1000
orcd_comm_1628_1         1           1
                                                    orcd             y             1          1000             0             0             1          1000
orcd_comm_1629_1         1           1
                                                    orcd             y             1          1000             0             0             1          1000
orcd_comm_1630_1         1           1
                                                    orcd             y             1          1000             0             0             1          1000
orcd_comm_1631_1         1           1
                                                    orcd             y             1          1000             0             0             1          1000
orcd_comm_1632_1         1           1
                                                    orcd             y             1          1000             0             0             1          1000
orcd_comm_1633_1         1           1
                                                    orcd             y             1          1000             0             0             1          1000
orcd_comm_1634_1         1           1
                                                    orcd             y             1          1000             0             0             1          1000
orcd_comm_1635_1         1           1
                                                    orcd             y             1          1000             0             0             1          1000
orcd_comm_1636_1         1           1
                                                    orcd             y             1          1000             0             0             1          1000
orcd_comm_1637_1         1           1
                                                    orcd             y             1          1000             0             0             1          1000
orcd_comm_1638_1         1           1
                                                    orcd             y             1          1000             0             0             1          1000
orcd_comm_1639_1         1           1
                                                    orcd             y             1          1000             0             0             1          1000
orcd_comm_1640_1         1           1
                                                    orcd             y             1          1000             0             0             1          1000
orcd_comm_1641_1         1           1
                                                    orcd             y             1          1000             0             0             1          1000
orcd_comm_1642_1         1           1
                                                    orcd             y             1          1000             0             0             1          1000
orcd_comm_1643_1         1           1
                                                    orcd             y             1          1000             0             0             1          1000
orcd_comm_1644_1         1           1
                                                    orcd             y             1          1000             0             0             1          1000
orcd_comm_1645_1         1           1
                                                    orcd             y             1          1000             0             0             1          1000
orcd_comm_1646_1         1           1
                                                    orcd             y             1          1000             0             0             1          1000
orcd_comm_1647_1         1           1
                                                    orcd             y             1          1000             0             0             1          1000
orcd_comm_1648_1         1           1
                                                    orcd             y             1          1000             0             0             1          1000
orcd_comm_1649_1         1           1
                                                    orcd             y             1          1000             0             0             1          1000
orcd_comm_1650_1         1           1
                                                    orcd             y             1          1000             0             0             1          1000
urhd_comm                1           1
                                                    rnge             y             1          1000             0             0             1          1000
urld_comm                1           1
                                                    rnge             y             1          1000             0             0             1          1000
urmd_comm                1           1
                                                    rnge             y             1          1000             0             0             1          1000
wehb_comm                1           1
                                                    wetl             y             2         50000             0             0             1         10000
wetf_comm                1           1
                                                    wetl             y             2         50000             0             0             1         10000
wetn_comm                1           1
                                                    wetl             y             2         50000             0             0             1         10000
beru_comm_3684_1         1           1
                                                    rnge             y             1          1000             0             0             1          1000
beru_comm_3685_1         1           1
                                                    rnge             y             1          1000             0             0             1          1000
beru_comm_3686_1         1           1
                                                    rnge             y             1          1000             0             0             1          1000
beru_comm_3687_1         1           1
                                                    rnge             y             1          1000             0             0             1          1000
beru_comm_3688_1         1           1
                                                    rnge             y             1          1000             0             0             1          1000
beru_comm_3689_1         1           1
                                                    rnge             y             1          1000             0             0             1          1000
beru_comm_3690_1         1           1
                                                    rnge             y             1          1000             0             0             1          1000
beru_comm_3691_1         1           1
                                                    rnge             y             1          1000             0             0             1          1000
beru_comm_3692_1         1           1
                                                    rnge             y             1          1000             0             0             1          1000
beru_comm_3693_1         1           1
                                                    rnge             y             1          1000             0             0             1          1000
beru_comm_3694_1         1           1
                                                    rnge             y             1          1000             0             0             1          1000
beru_comm_3695_1         1           1
                                                    rnge             y             1          1000             0             0             1          1000
beru_comm_3696_1         1           1
                                                    rnge             y             1          1000             0             0             1          1000
beru_comm_3697_1         1           1
                                                    rnge             y             1          1000             0             0             1          1000
beru_comm_3698_1         1           1
                                                    rnge             y             1          1000             0             0             1          1000
beru_comm_3699_1         1           1
                                                    rnge             y             1          1000             0             0             1          1000
beru_comm_3700_1         1           1
                                                    rnge             y             1          1000             0             0             1          1000
beru_comm_3701_1         1           1
                                                    rnge             y             1          1000             0             0             1          1000
beru_comm_3702_1         1           1
                                                    rnge             y             1          1000             0             0             1          1000
beru_comm_3703_1         1           1
                                                    rnge             y             1          1000             0             0             1          1000
beru_comm_3704_1         1           1
                                                    rnge             y             1          1000             0             0             1          1000
beru_comm_3705_1         1           1
                                                    rnge             y             1          1000             0             0             1          1000
beru_comm_3706_1         1           1
                                                    rnge             y             1          1000             0             0             1          1000
beru_comm_3707_1         1           1
                                                    rnge             y             1          1000             0             0             1          1000
beru_comm_3708_1         1           1
                                                    rnge             y             1          1000             0             0             1          1000
beru_comm_3709_1         1           1
                                                    rnge             y             1          1000             0             0             1          1000
beru_comm_3710_1         1           1
                                                    rnge             y             1          1000             0             0             1          1000
beru_comm_3711_1         1           1
                                                    rnge             y             1          1000             0             0             1          1000
beru_comm_3712_1         1           1
                                                    rnge             y             1          1000             0             0             1          1000
beru_comm_3713_1         1           1
                                                    rnge             y             1          1000             0             0             1          1000
beru_comm_3714_1         1           1
                                                    rnge             y             1          1000             0             0             1          1000
beru_comm_3715_1         1           1
                                                    rnge             y             1          1000             0             0             1          1000
beru_comm_3716_1         1           1
                                                    rnge             y             1          1000             0             0             1          1000
beru_comm_3717_1         1           1
                                                    rnge             y             1          1000             0             0             1          1000
beru_comm_3718_1         1           1
                                                    rnge             y             1          1000             0             0             1          1000
beru_comm_3719_1         1           1
                                                    rnge             y             1          1000             0             0             1          1000
beru_comm_3720_1         1           1
                                                    rnge             y             1          1000             0             0             1          1000
beru_comm_3721_1         1           1
                                                    rnge             y             1          1000             0             0             1          1000
beru_comm_3722_1         1           1
                                                    rnge             y             1          1000             0             0             1          1000
beru_comm_3723_1         1           1
                                                    rnge             y             1          1000             0             0             1          1000
beru_comm_3724_1         1           1
                                                    rnge             y             1          1000             0             0             1          1000
beru_comm_3725_1         1           1
                                                    rnge             y             1          1000             0             0             1          1000
beru_comm_3726_1         1           1
                                                    rnge             y             1          1000             0             0             1          1000
beru_comm_3727_1         1           1
                                                    rnge             y             1          1000             0             0             1          1000
beru_comm_3728_1         1           1
                                                    rnge             y             1          1000             0             0             1          1000
beru_comm_3729_1         1           1
                                                    rnge             y             1          1000             0             0             1          1000
beru_comm_3730_1         1           1
                                                    rnge             y             1          1000             0             0             1          1000
beru_comm_3731_1         1           1
                                                    rnge             y             1          1000             0             0             1          1000
beru_comm_3732_1         1           1
                                                    rnge             y             1          1000             0             0             1          1000
beru_comm_3733_1         1           1
                                                    rnge             y             1          1000             0             0             1          1000
beru_comm_3734_1         1           1
                                                    rnge             y             1          1000             0             0             1          1000
beru_comm_3735_1         1           1
                                                    rnge             y             1          1000             0             0             1          1000
beru_comm_3736_1         1           1
                                                    rnge             y             1          1000             0             0             1          1000
beru_comm_3737_1         1           1
                                                    rnge             y             1          1000             0             0             1          1000
beru_comm_3738_1         1           1
                                                    rnge             y             1          1000             0             0             1          1000
beru_comm_3739_1         1           1
                                                    rnge             y             1          1000             0             0             1          1000
beru_comm_3740_1         1           1
                                                    rnge             y             1          1000             0             0             1          1000
beru_comm_3741_1         1           1
                                                    rnge             y             1          1000             0             0             1          1000
beru_comm_3742_1         1           1
                                                    rnge             y             1          1000             0             0             1          1000
beru_comm_3743_1         1           1
                                                    rnge             y             1          1000             0             0             1          1000
beru_comm_3744_1         1           1
                                                    rnge             y             1          1000             0             0             1          1000
beru_comm_3745_1         1           1
                                                    rnge             y             1          1000             0             0             1          1000
beru_comm_3746_1         1           1
                                                    rnge             y             1          1000             0             0             1          1000
beru_comm_3747_1         1           1
                                                    rnge             y             1          1000             0             0             1          1000
beru_comm_3748_1         1           1
                                                    rnge             y             1          1000             0             0             1          1000
beru_comm_3749_1         1           1
                                                    rnge             y             1          1000             0             0             1          1000
beru_comm_3750_1         1           1
                                                    rnge             y             1          1000             0             0             1          1000
beru_comm_3751_1         1           1
                                                    rnge             y             1          1000             0             0             1          1000
beru_comm_3752_1         1           1
                                                    rnge             y             1          1000             0             0             1          1000
beru_comm_3753_1         1           1
                                                    rnge             y             1          1000             0             0             1          1000
beru_comm_3754_1         1           1
                                                    rnge             y             1          1000             0             0             1          1000
beru_comm_3755_1         1           1
                                                    rnge             y             1          1000             0             0             1          1000
beru_comm_3756_1         1           1
                                                    rnge             y             1          1000             0             0             1          1000
beru_comm_3757_1         1           1
                                                    rnge             y             1          1000             0             0             1          1000
beru_comm_3758_1         1           1
                                                    rnge             y             1          1000             0             0             1          1000
beru_comm_3759_1         1           1
                                                    rnge             y             1          1000             0             0             1          1000
beru_comm_3760_1         1           1
                                                    rnge             y             1          1000             0             0             1          1000
beru_comm_3761_1         1           1
                                                    rnge             y             1          1000             0             0             1          1000
beru_comm_3762_1         1           1
                                                    rnge             y             1          1000             0             0             1          1000
beru_comm_3763_1         1           1
                                                    rnge             y             1          1000             0             0             1          1000
beru_comm_3764_1         1           1
                                                    rnge             y             1          1000             0             0             1          1000
beru_comm_3765_1         1           1
                                                    rnge             y             1          1000             0             0             1          1000
beru_comm_3766_1         1           1
                                                    rnge             y             1          1000             0             0             1          1000
beru_comm_3767_1         1           1
                                                    rnge             y             1          1000             0             0             1          1000