reservoir.con: written by SWAT+ editor v2.1.0 on 2026-01-19 18:46 for SWAT+ rev.2.1.4
      id  name                gis_id          area           lat           lon          elev       res               wst       cst      ovfl      rule   out_tot       obj_typ    obj_id       hyd_typ          frac  
       1  res001                   0       1.40063      54.23566      17.65476     134.94397         1      s5425n17606e         0         0         0         0  
       2  res002                   0       4.05266      54.24181      17.63898     123.49912         2      s5425n17606e         0         0         0         0  
       3  res003                   0       0.58597      54.25097      17.68773     187.82654         3      s54251n1776e         0         0         0         0  
       4  res004                   0       0.52877      54.25344      17.66339     159.96955         4      s5425n17606e         0         0         0         0  
       5  res005                   0       7.55028      54.25272      17.68120     187.56365         5      s5425n17606e         0         0         0         0  
       6  res006                   0      20.47384      54.25581      17.68794     187.56558         6      s54251n1776e         0         0         0         0  
       7  res007                   0      36.88124      54.25857      17.60387     120.67679         7      s5425n17606e         0         0         0         1           sdc        27           tot       1.00000  
       8  res008                   0       9.86815      54.26098      17.58659     120.67783         8      s5425n17606e         0         0         0         0  
       9  res009                   0       4.30107      54.26359      17.58139     123.45919         9      s5425n17606e         0         0         0         0  
      10  res010                   0       1.17565      54.27277      17.64050     145.39869        10      s5425n17606e         0         0         0         0  
      11  res011                   0       0.47131      54.27331      17.64480     149.78155        11      s5425n17606e         0         0         0         0  
      12  res012                   0       0.35867      54.27645      17.68036     163.22458        12     s54296n17759e         0         0         0         0  
      13  res013                   0       1.21422      54.27836      17.71578     206.56512        13     s54296n17759e         0         0         0         0  
      14  res014                   0       0.34971      54.27929      17.71213     206.51819        14     s54296n17759e         0         0         0         0  
      15  res015                   0       0.30246      54.28306      17.62590     125.23664        15      s5425n17606e         0         0         0         0  
      16  res016                   0       0.43973      54.28420      17.70021     200.63671        16     s54296n17759e         0         0         0         1           sdc        26           tot       1.00000  
      17  res017                   0       0.82705      54.28388      17.62208     120.66440        17      s5425n17606e         0         0         0         0  
      18  res018                   0       7.21712      54.28655      17.68028     162.74526        18     s54296n17759e         0         0         0         0  
      19  res019                   0       1.24098      54.29122      17.69869     195.01295        19     s54296n17759e         0         0         0         0  
      20  res020                   0       0.78446      54.29660      17.67477     162.65648        20     s54296n17759e         0         0         0         0  
      21  res021                   0       8.80370      54.29658      17.70210     191.18094        21     s54296n17759e         0         0         0         0  
      22  res022                   0       0.84119      54.30046      17.69738     190.76469        22     s54296n17759e         0         0         0         0  
      23  res023                   0       3.56667      54.30541      17.71451     194.20268        23     s54296n17759e         0         0         0         1           sdc        35           tot       1.00000  
      24  res024                   0       2.61088      54.30577      17.57880     134.89597        24     s54294n17528e         0         0         0         0  
      25  res025                   0       3.26268      54.30879      17.73687     207.95640        25     s54296n17759e         0         0         0         0  
      26  res026                   0       1.25631      54.31484      17.72898     176.05822        26     s54296n17759e         0         0         0         1           sdc        36           tot       1.00000  
      27  res027                   0       1.02661      54.31442      17.62620     120.65547        27     s54294n17528e         0         0         0         0  
      28  res028                   0       2.03452      54.31312      17.57533     138.20839        28     s54294n17528e         0         0         0         0  
      29  res029                   0       0.32632      54.31858      17.73019     182.07211        29     s54296n17759e         0         0         0         0  
      30  res030                   0       1.08978      54.31759      17.57903     133.41703        30     s54339n17526e         0         0         0         0  
      31  res031                   0      10.68878      54.31820      17.73527     176.05726        31     s54296n17759e         0         0         0         1           sdc        37           tot       1.00000  
      32  res032                   0       0.46671      54.32148      17.83439     201.58588        32     s54297n17835e         0         0         0         0  
      33  res033                   0       2.29368      54.31993      17.62385     120.64850        33     s54339n17526e         0         0         0         0  
      34  res034                   0       0.85117      54.32542      17.93436     218.31300        34     s54297n17835e         0         0         0         0  
      35  res035                   0       6.05356      54.32367      17.71754     189.08317        35     s54296n17759e         0         0         0         0  
      36  res036                   0       0.93493      54.32596      17.65953     146.04569        36     s54296n17759e         0         0         0         0  
      37  res037                   0       0.50003      54.32908      17.83381     195.11744        37     s54297n17835e         0         0         0         0  
      38  res038                   0       0.30333      54.32878      17.68833     165.51816        38     s54296n17759e         0         0         0         0  
      39  res039                   0       0.35056      54.33091      17.90744     200.66337        39     s54297n17835e         0         0         0         0  
      40  res040                   0       0.53703      54.33069      17.78143     196.74606        40     s54296n17759e         0         0         0         0  
      41  res041                   0       6.27068      54.33023      17.82922     194.50343        41     s54297n17835e         0         0         0         0  
      42  res042                   0       0.65658      54.32961      17.59428     138.24172        42     s54339n17526e         0         0         0         0  
      43  res043                   0     600.59112      54.29125      17.61022     120.66193        43      s5425n17606e         0         0         0         1           sdc        47           tot       1.00000  
      44  res044                   0       0.38031      54.33670      17.95845     229.01714        44     s54297n17835e         0         0         0         0  
      45  res045                   0       0.36940      54.33526      17.80845     183.19250        45     s54297n17835e         0         0         0         0  
      46  res046                   0       0.33074      54.33511      17.62906     120.64400        46     s54339n17526e         0         0         0         0  
      47  res047                   0       8.71027      54.33389      17.68678     163.94086        47     s54296n17759e         0         0         0         0  
      48  res048                   0       0.35476      54.33886      17.91579     209.24255        48     s54297n17835e         0         0         0         0  
      49  res049                   0       0.31065      54.33617      17.62812     120.64380        49     s54339n17526e         0         0         0         0  
      50  res050                   0       0.87468      54.33795      17.83224     162.09921        50     s54297n17835e         0         0         0         0  
      51  res051                   0       2.77530      54.34136      17.90055     217.48111        51     s54297n17835e         0         0         0         0  
      52  res052                   0       1.64724      54.33984      17.67851     159.55300        52     s54296n17759e         0         0         0         0  
      53  res053                   0       1.98114      54.34236      17.69301     168.15104        53     s54296n17759e         0         0         0         0  
      54  res054                   0       0.35014      54.34424      17.84792     166.17352        54     s54297n17835e         0         0         0         1           sdc        96           tot       1.00000  
      55  res055                   0       1.50718      54.34248      17.68493     158.76151        55     s54296n17759e         0         0         0         0  
      56  res056                   0       0.30329      54.34460      17.75697     188.44611        56     s54296n17759e         0         0         0         0  
      57  res057                   0       0.51620      54.34567      17.84675     164.52786        57     s54297n17835e         0         0         0         1           sdc        97           tot       1.00000  
      58  res058                   0       1.23067      54.34528      17.69130     164.84515        58     s54296n17759e         0         0         0         0  
      59  res059                   0       9.87498      54.34561      17.87594     186.04338        59     s54297n17835e         0         0         0         0  
      60  res060                   0       2.43644      54.34455      17.62515     113.51645        60     s54339n17526e         0         0         0         0  
      61  res061                   0       0.30677      54.34682      17.62056     120.04768        61     s54339n17526e         0         0         0         0  
      62  res062                   0       1.81053      54.34684      17.61136     126.39445        62     s54339n17526e         0         0         0         0  
      63  res063                   0       0.62743      54.34834      17.72825     169.52659        63     s54296n17759e         0         0         0         0  
      64  res064                   0       2.01790      54.34679      17.62350     111.86306        64     s54339n17526e         0         0         0         1           sdc        60           tot       1.00000  
      65  res065                   0       1.54686      54.34771      17.68639     155.36572        65     s54296n17759e         0         0         0         0  
      66  res066                   0       0.49792      54.35413      17.89371     208.33364        66     s54297n17835e         0         0         0         0  
      67  res067                   0       3.20902      54.35122      17.56237     127.28982        67     s54339n17526e         0         0         0         0  
      68  res068                   0       0.36509      54.35277      17.57394     140.82579        68     s54339n17526e         0         0         0         0  
      69  res069                   0       0.39971      54.35586      17.83365     167.17621        69     s54297n17835e         0         0         0         0  
      70  res070                   0       0.49145      54.35323      17.56994     134.15829        70     s54339n17526e         0         0         0         0  
      71  res071                   0       0.61921      54.35359      17.56636     127.28972        71     s54339n17526e         0         0         0         0  
      72  res072                   0       0.87448      54.35830      17.72678     156.10066        72     s54296n17759e         0         0         0         0  
      73  res073                   0      28.40467      54.35302      17.85362     168.51534        73     s54297n17835e         0         0         0         0  
      74  res074                   0       0.31708      54.36019      17.80299     170.54743        74     s54297n17835e         0         0         0         0  
      75  res075                   0      19.62829      54.35884      17.82562     171.33939        75     s54297n17835e         0         0         0         0  
      76  res076                   0       0.57954      54.36081      17.76640     187.90975        76     s54296n17759e         0         0         0         0  
      77  res077                   0       2.12216      54.35960      17.64581     110.45116        77     s54339n17526e         0         0         0         0  
      78  res078                   0      27.92520      54.35947      17.84553     158.43414        78     s54297n17835e         0         0         0         1           sdc        54           tot       1.00000  
      79  res079                   0       1.25552      54.36149      17.64686     109.49888        79     s54339n17526e         0         0         0         0  
      80  res080                   0       3.18798      54.36385      17.86026     178.25445        80     s54297n17835e         0         0         0         0  
      81  res081                   0       6.63834      54.36281      17.71947     155.40481        81     s54296n17759e         0         0         0         0  
      82  res082                   0       5.07446      54.36477      17.97116     235.85969        82     s54297n17835e         0         0         0         0  
      83  res083                   0       0.58614      54.36653      17.79806     166.64218        83     s54297n17835e         0         0         0         0  
      84  res084                   0       7.74529      54.36578      17.81019     172.90782        84     s54297n17835e         0         0         0         0  
      85  res085                   0      15.65823      54.36618      17.95194     215.18627        85     s54297n17835e         0         0         0         1           sdc        23           tot       1.00000  
      86  res086                   0       1.45509      54.36777      17.82151     175.80998        86     s54297n17835e         0         0         0         0  
      87  res087                   0       0.42050      54.36832      17.84271     166.54701        87     s54297n17835e         0         0         0         0  
      88  res088                   0       0.67076      54.36909      17.89500     194.27987        88     s54297n17835e         0         0         0         0  
      89  res089                   0       0.46368      54.36996      17.88979     197.17741        89     s54297n17835e         0         0         0         0  
      90  res090                   0       2.06933      54.36791      17.74765     174.86847        90     s54296n17759e         0         0         0         0  
      91  res091                   0       3.55542      54.36994      17.82253     175.81354        91     s54297n17835e         0         0         0         0  
      92  res092                   0       0.51719      54.37235      17.83596     180.54084        92     s54297n17835e         0         0         0         0  
      93  res093                   0       1.19074      54.36815      17.46778     123.68531        93     s54383n17448e         0         0         0         0  
      94  res094                   0       0.69974      54.37073      17.64871     111.01686        94     s54339n17526e         0         0         0         0  
      95  res095                   0       0.80995      54.37274      17.81993     174.97182        95     s54297n17835e         0         0         0         0  
      96  res096                   0       0.32015      54.37359      17.86814     188.65314        96     s54297n17835e         0         0         0         0  
      97  res097                   0       1.21985      54.37216      17.66713     128.47477        97     s54339n17526e         0         0         0         0  
      98  res098                   0       2.43124      54.37355      17.78919     162.54819        98     s54296n17759e         0         0         0         0  
      99  res099                   0       3.34060      54.37517      17.85685     175.69261        99     s54297n17835e         0         0         0         0  
     100  res100                   0       1.27952      54.37358      17.64875     112.54319       100     s54339n17526e         0         0         0         0  
     101  res101                   0       1.14545      54.37280      17.51604      91.55466       101     s54339n17526e         0         0         0         0  
     102  res102                   0       2.32098      54.37420      17.63769     113.26627       102     s54339n17526e         0         0         0         0  
     103  res103                   0       2.16955      54.37297      17.51154      92.38414       103     s54339n17526e         0         0         0         0  
     104  res104                   0       1.49884      54.37660      17.85292     173.51918       104     s54297n17835e         0         0         0         0  
     105  res105                   0       0.45430      54.37795      17.84960     164.51840       105     s54297n17835e         0         0         0         0  
     106  res106                   0       0.47946      54.37627      17.62311     107.65615       106     s54339n17526e         0         0         0         0  
     107  res107                   0       0.40476      54.37509      17.50513      89.46502       107     s54383n17448e         0         0         0         0  
     108  res108                   0       1.17756      54.37968      17.95501     224.23110       108     s54297n17835e         0         0         0         0  
     109  res109                   0       0.34411      54.37659      17.62439     108.25431       109     s54339n17526e         0         0         0         0  
     110  res110                   0       0.31856      54.37861      17.76138     158.77248       110     s54296n17759e         0         0         0         0  
     111  res111                   0       0.91150      54.37565      17.50329      88.65862       111     s54383n17448e         0         0         0         0  
     112  res112                   0       0.36033      54.38126      17.90213     203.41207       112     s54297n17835e         0         0         0         0  
     113  res113                   0       0.36297      54.38158      17.85026     154.97372       113     s54297n17835e         0         0         0         0  
     114  res114                   0       1.96553      54.37877      17.54901     108.40915       114     s54339n17526e         0         0         0         0  
     115  res115                   0       0.93589      54.38466      17.80287     154.16762       115     s54297n17835e         0         0         0         0  
     116  res116                   0       0.44145      54.38534      17.77281     152.27939       116     s54296n17759e         0         0         0         0  
     117  res117                   0       0.75110      54.38508      17.71968     159.58530       117     s54296n17759e         0         0         0         0  
     118  res118                   0       1.54382      54.38562      17.71367     163.40535       118     s54296n17759e         0         0         0         0  
     119  res119                   0      33.77132      54.38182      17.52535     108.40581       119     s54339n17526e         0         0         0         0  
     120  res120                   0       1.55503      54.38798      17.86403     162.93464       120     s54297n17835e         0         0         0         0  
     121  res121                   0       1.71488      54.38797      17.64785     121.92485       121     s54339n17526e         0         0         0         0  
     122  res122                   0       5.24125      54.38392      17.36350      96.13620       122     s54381n17294e         0         0         0         0  
     123  res123                   0       6.73055      54.38812      17.51358     101.36679       123     s54383n17448e         0         0         0         0  
     124  res124                   0       0.85009      54.39390      17.84725     152.54548       124     s54297n17835e         0         0         0         0  
     125  res125                   0       3.12025      54.38868      17.37772      98.04799       125     s54383n17448e         0         0         0         0  
     126  res126                   0       0.64517      54.39717      17.97505     215.89062       126     s54297n17835e         0         0         0         0  
     127  res127                   0       5.67322      54.39501      17.85916     152.52997       127     s54297n17835e         0         0         0         0  
     128  res128                   0       1.57168      54.39743      17.96459     217.63043       128     s54297n17835e         0         0         0         0  
     129  res129                   0       0.38815      54.39427      17.49018      85.03717       129     s54383n17448e         0         0         0         0  
     130  res130                   0       5.93657      54.39783      17.84687     152.53779       130     s54297n17835e         0         0         0         0  
     131  res131                   0      16.75304      54.39500      17.67464     121.57276       131     s54339n17526e         0         0         0         0  
     132  res132                   0      30.53160      54.38879      17.37039      92.97245       132     s54381n17294e         0         0         0         1           sdc        13           tot       1.00000  
     133  res133                   0       3.35263      54.39862      17.75471     142.79550       133     s54296n17759e         0         0         0         1           sdc        34           tot       1.00000  
     134  res134                   0       0.73798      54.40104      17.83027     151.26848       134     s54297n17835e         0         0         0         0  
     135  res135                   0      60.66617      54.40149      17.90553     159.33999       135     s54297n17835e         0         0         0         0  
     136  res136                   0       4.10473      54.40129      17.79843     150.01822       136     s54297n17835e         0         0         0         0  
     137  res137                   0       0.86581      54.40522      17.89262     159.33391       137     s54297n17835e         0         0         0         0  
     138  res138                   0      10.03060      54.39900      17.35617      89.62238       138     s54381n17294e         0         0         0         1           sdc        14           tot       1.00000  
     139  res139                   0       0.86702      54.40218      17.39953      96.85737       139     s54383n17448e         0         0         0         0  
     140  res140                   0     144.38217      54.39969      17.87030     152.53269       140     s54297n17835e         0         0         0         1           sdc        66           tot       1.00000  
     141  res141                   0       1.62715      54.40967      17.89362     163.25521       141     s54297n17835e         0         0         0         0  
     142  res142                   0       1.10700      54.40780      17.65391     131.84487       142     s54339n17526e         0         0         0         0  
     143  res143                   0       0.41521      54.40488      17.39605      96.62486       143     s54383n17448e         0         0         0         0  
     144  res144                   0       1.57348      54.40847      17.67768     132.73886       144     s54339n17526e         0         0         0         0  
     145  res145                   0       0.39003      54.41361      18.00645     198.38233       145     s54297n17835e         0         0         0         0  
     146  res146                   0       1.75295      54.41252      17.88999     163.25600       146     s54297n17835e         0         0         0         0  
     147  res147                   0      37.88300      54.40981      17.91531     159.33724       147     s54297n17835e         0         0         0         1           sdc        90           tot       1.00000  
     148  res148                   0      49.10088      54.40893      17.85050     152.54922       148     s54297n17835e         0         0         0         1           sdc        67           tot       1.00000  
     149  res149                   0      21.16226      54.41161      17.98641     171.37049       149     s54297n17835e         0         0         0         1           sdc        40           tot       1.00000  
     150  res150                   0       5.70147      54.41351      17.93348     159.33788       150     s54297n17835e         0         0         0         1           sdc        88           tot       1.00000  
     151  res151                   0      13.58561      54.41768      17.89630     159.33014       151     s54297n17835e         0         0         0         0  
     152  res152                   0       3.65911      54.41968      17.98185     200.49682       152     s54297n17835e         0         0         0         0  
     153  res153                   0       6.63663      54.42039      17.96285     159.33950       153     s54297n17835e         0         0         0         1           sdc        41           tot       1.00000  
     154  res154                   0     111.66351      54.41809      17.93150     159.33520       154     s54297n17835e         0         0         0         1           sdc        49           tot       1.00000  
     155  res155                   0       0.61526      54.42347      17.99801     192.38194       155     s54297n17835e         0         0         0         0  
     156  res156                   0      13.09635      54.42219      18.00330     192.37161       156     s54297n17835e         0         0         0         0  
     157  res157                   0       6.69693      54.42138      17.85209     154.11817       157     s54297n17835e         0         0         0         0  
     158  res158                   0       0.30828      54.42613      17.88651     159.32650       158     s54297n17835e         0         0         0         0  
     159  res159                   0       0.38955      54.42194      17.44021      87.57815       159     s54383n17448e         0         0         0         0  
     160  res160                   0       0.39618      54.42955      17.95834     185.47058       160     s54297n17835e         0         0         0         0  
     161  res161                   0       1.01730      54.42450      17.46610      98.74237       161     s54383n17448e         0         0         0         0  
     162  res162                   0       0.84565      54.42973      17.93395     188.34580       162     s54297n17835e         0         0         0         0  
     163  res163                   0       2.06139      54.42530      17.49488      91.77315       163     s54383n17448e         0         0         0         0  
     164  res164                   0       1.49614      54.42971      17.88011     159.32612       164     s54297n17835e         0         0         0         0  
     165  res165                   0       0.36796      54.42517      17.39541      77.46547       165     s54383n17448e         0         0         0         0  
     166  res166                   0       3.59192      54.43084      17.96116     185.47140       166     s54297n17835e         0         0         0         0  
     167  res167                   0       2.26030      54.42972      17.74335     152.43192       167     s54296n17759e         0         0         0         0  
     168  res168                   0       0.75755      54.43165      17.86828     178.07111       168     s54297n17835e         0         0         0         0  
     169  res169                   0       3.33891      54.43159      17.89376     159.32258       169     s54297n17835e         0         0         0         0  
     170  res170                   0       0.86491      54.42827      17.49483      90.89282       170     s54383n17448e         0         0         0         0  
     171  res171                   0       1.06681      54.43647      17.92104     181.22097       171     s54297n17835e         0         0         0         0  
     172  res172                   0       7.01638      54.43938      17.88517     159.32266       172     s54297n17835e         0         0         0         0  
     173  res173                   0       0.86258      54.43595      17.33915      72.97825       173     s54426n17292e         0         0         0         0  
     174  res174                   0       1.01721      54.43932      17.46952      91.67940       174     s54383n17448e         0         0         0         0  
     175  res175                   0       0.71018      54.44003      17.35990      70.89329       175     s54426n17292e         0         0         0         1           sdc        64           tot       1.00000  