topography.hyd: written by SWAT+ editor v2.1.0 on 2026-01-19 18:47 for SWAT+ rev.2.1.4
name                       slp       slp_len       lat_len      dist_cha         depos  
topohru00001           0.04639      30.00000      30.00000     121.00000       0.00000  
topohru00002           0.04008      30.00000      30.00000     121.00000       0.00000  
topohru00003           0.04626      30.00000      30.00000     121.00000       0.00000  
topohru00004           0.03760      30.00000      30.00000     121.00000       0.00000  
topohru00005           0.12236      30.00000      30.00000     121.00000       0.00000  
topohru00006           0.09108      30.00000      30.00000     121.00000       0.00000  
topohru00007           0.05634      30.00000      30.00000     121.00000       0.00000  
topohru00008           0.04346      30.00000      30.00000     121.00000       0.00000  
topohru00009           0.11050      30.00000      30.00000     121.00000       0.00000  
topohru00010           0.05730      30.00000      30.00000     121.00000       0.00000  
topohru00011           0.00888      30.00000      30.00000     121.00000       0.00000  
topohru00012           0.05628      30.00000      30.00000     121.00000       0.00000  
topohru00013           0.05559      30.00000      30.00000     121.00000       0.00000  
topohru00014           0.04030      30.00000      30.00000     121.00000       0.00000  
topohru00015           0.03552      30.00000      30.00000     121.00000       0.00000  
topohru00016           0.13636      30.00000      30.00000     121.00000       0.00000  
topohru00017           0.01492      30.00000      30.00000     121.00000       0.00000  
topohru00018           0.13157      30.00000      30.00000     121.00000       0.00000  
topohru00019           0.10394      30.00000      30.00000     121.00000       0.00000  
topohru00020           0.03495      30.00000      30.00000     121.00000       0.00000  
topohru00021           0.08266      30.00000      30.00000     121.00000       0.00000  
topohru00022           0.11855      30.00000      30.00000     121.00000       0.00000  
topohru00023           0.06763      30.00000      30.00000     121.00000       0.00000  
topohru00024           0.01476      30.00000      30.00000     121.00000       0.00000  
topohru00025           0.12590      30.00000      30.00000     121.00000       0.00000  
topohru00026           0.15102      30.00000      30.00000     121.00000       0.00000  
topohru00027           0.11157      30.00000      30.00000     121.00000       0.00000  
topohru00028           0.04306      30.00000      30.00000     121.00000       0.00000  
topohru00029           0.05002      30.00000      30.00000     121.00000       0.00000  
topohru00030           0.11189      30.00000      30.00000     121.00000       0.00000  
topohru00031           0.05608      30.00000      30.00000     121.00000       0.00000  
topohru00032           0.06632      30.00000      30.00000     121.00000       0.00000  
topohru00033           0.06468      30.00000      30.00000     121.00000       0.00000  
topohru00034           0.05067      30.00000      30.00000     121.00000       0.00000  
topohru00035           0.16806      30.00000      30.00000     121.00000       0.00000  
topohru00036           0.04763      30.00000      30.00000     121.00000       0.00000  
topohru00037           0.14774      30.00000      30.00000     121.00000       0.00000  
topohru00038           0.03920      30.00000      30.00000     121.00000       0.00000  
topohru00039           0.29243      30.00000      30.00000     121.00000       0.00000  
topohru00040           0.17991      30.00000      30.00000     121.00000       0.00000  
topohru00041           0.05304      30.00000      30.00000     121.00000       0.00000  
topohru00042           0.25495      30.00000      30.00000     121.00000       0.00000  
topohru00043           0.05492      30.00000      30.00000     121.00000       0.00000  
topohru00044           0.06550      30.00000      30.00000     121.00000       0.00000  
topohru00045           0.04663      30.00000      30.00000     121.00000       0.00000  
topohru00046           0.25231      30.00000      30.00000     121.00000       0.00000  
topohru00047           0.14907      30.00000      30.00000     121.00000       0.00000  
topohru00048           0.07726      30.00000      30.00000     121.00000       0.00000  
topohru00049           0.06351      30.00000      30.00000     121.00000       0.00000  
topohru00050           0.08917      30.00000      30.00000     121.00000       0.00000  
topohru00051           0.04309      30.00000      30.00000     121.00000       0.00000  
topohru00052           0.11972      30.00000      30.00000     121.00000       0.00000  
topohru00053           0.07659      30.00000      30.00000     121.00000       0.00000  
topohru00054           0.10462      30.00000      30.00000     121.00000       0.00000  
topohru00055           0.06072      30.00000      30.00000     121.00000       0.00000  
topohru00056           0.06636      30.00000      30.00000     121.00000       0.00000  
topohru00057           0.16288      30.00000      30.00000     121.00000       0.00000  
topohru00058           0.04627      30.00000      30.00000     121.00000       0.00000  
topohru00059           0.04820      30.00000      30.00000     121.00000       0.00000  
topohru00060           0.13718      30.00000      30.00000     121.00000       0.00000  
topohru00061           0.01220      30.00000      30.00000     121.00000       0.00000  
topohru00062           0.00859      30.00000      30.00000     121.00000       0.00000  
topohru00063           0.10009      30.00000      30.00000     121.00000       0.00000  
topohru00064           0.06806      30.00000      30.00000     121.00000       0.00000  
topohru00065           0.00881      30.00000      30.00000     121.00000       0.00000  
topohru00066           0.07319      30.00000      30.00000     121.00000       0.00000  
topohru00067           0.02980      30.00000      30.00000     121.00000       0.00000  
topohru00068           0.07259      30.00000      30.00000     121.00000       0.00000  
topohru00069           0.03379      30.00000      30.00000     121.00000       0.00000  
topohru00070           0.03789      30.00000      30.00000     121.00000       0.00000  
topohru00071           0.05693      30.00000      30.00000     121.00000       0.00000  
topohru00072           0.07402      30.00000      30.00000     121.00000       0.00000  
topohru00073           0.08484      30.00000      30.00000     121.00000       0.00000  
topohru00074           0.09651      30.00000      30.00000     121.00000       0.00000  
topohru00075           0.07551      30.00000      30.00000     121.00000       0.00000  
topohru00076           0.08343      30.00000      30.00000     121.00000       0.00000  
topohru00077           0.21410      30.00000      30.00000     121.00000       0.00000  
topohru00078           0.19268      30.00000      30.00000     121.00000       0.00000  
topohru00079           0.20908      30.00000      30.00000     121.00000       0.00000  
topohru00080           0.20744      30.00000      30.00000     121.00000       0.00000  
topohru00081           0.04373      30.00000      30.00000     121.00000       0.00000  
topohru00082           0.09904      30.00000      30.00000     121.00000       0.00000  
topohru00083           0.21382      30.00000      30.00000     121.00000       0.00000  
topohru00084           0.14352      30.00000      30.00000     121.00000       0.00000  
topohru00085           0.02833      30.00000      30.00000     121.00000       0.00000  
topohru00086           0.04147      30.00000      30.00000     121.00000       0.00000  
topohru00087           0.02690      30.00000      30.00000     121.00000       0.00000  
topohru00088           0.18521      30.00000      30.00000     121.00000       0.00000  
topohru00089           0.18068      30.00000      30.00000     121.00000       0.00000  
topohru00090           0.06311      30.00000      30.00000     121.00000       0.00000  
topohru00091           0.17867      30.00000      30.00000     121.00000       0.00000  
topohru00092           0.09123      30.00000      30.00000     121.00000       0.00000  
topohru00093           0.16221      30.00000      30.00000     121.00000       0.00000  
topohru00094           0.06795      30.00000      30.00000     121.00000       0.00000  
topohru00095           0.14250      30.00000      30.00000     121.00000       0.00000  
topohru00096           0.08733      30.00000      30.00000     121.00000       0.00000  
topohru00097           0.13839      30.00000      30.00000     121.00000       0.00000  
topohru00098           0.16183      30.00000      30.00000     121.00000       0.00000  
topohru00099           0.07234      30.00000      30.00000     121.00000       0.00000  
topohru00100           0.22443      30.00000      30.00000     121.00000       0.00000  
topohru00101           0.08050      30.00000      30.00000     121.00000       0.00000  
topohru00102           0.15278      30.00000      30.00000     121.00000       0.00000  
topohru00103           0.25857      30.00000      30.00000     121.00000       0.00000  
topohru00104           0.18411      30.00000      30.00000     121.00000       0.00000  
topohru00105           0.22024      30.00000      30.00000     121.00000       0.00000  
topohru00106           0.07853      30.00000      30.00000     121.00000       0.00000  
topohru00107           0.10453      30.00000      30.00000     121.00000       0.00000  
topohru00108           0.09399      30.00000      30.00000     121.00000       0.00000  
topohru00109           0.06998      30.00000      30.00000     121.00000       0.00000  
topohru00110           0.09062      30.00000      30.00000     121.00000       0.00000  
topohru00111           0.18646      30.00000      30.00000     121.00000       0.00000  
topohru00112           0.16365      30.00000      30.00000     121.00000       0.00000  
topohru00113           0.14183      30.00000      30.00000     121.00000       0.00000  
topohru00114           0.03616      30.00000      30.00000     121.00000       0.00000  
topohru00115           0.12755      30.00000      30.00000     121.00000       0.00000  
topohru00116           0.11278      30.00000      30.00000     121.00000       0.00000  
topohru00117           0.31219      30.00000      30.00000     121.00000       0.00000  
topohru00118           0.13792      30.00000      30.00000     121.00000       0.00000  
topohru00119           0.05587      30.00000      30.00000     121.00000       0.00000  
topohru00120           0.15856      30.00000      30.00000     121.00000       0.00000  
topohru00121           0.03163      30.00000      30.00000     121.00000       0.00000  
topohru00122           0.19578      30.00000      30.00000     121.00000       0.00000  
topohru00123           0.07068      30.00000      30.00000     121.00000       0.00000  
topohru00124           0.34647      30.00000      30.00000     121.00000       0.00000  
topohru00125           0.09340      30.00000      30.00000     121.00000       0.00000  
topohru00126           0.04332      30.00000      30.00000     121.00000       0.00000  
topohru00127           0.05790      30.00000      30.00000     121.00000       0.00000  
topohru00128           0.08831      30.00000      30.00000     121.00000       0.00000  
topohru00129           0.22955      30.00000      30.00000     121.00000       0.00000  
topohru00130           0.38319      30.00000      30.00000     121.00000       0.00000  
topohru00131           0.06484      30.00000      30.00000     121.00000       0.00000  
topohru00132           0.03699      30.00000      30.00000     121.00000       0.00000  
topohru00133           0.02028      30.00000      30.00000     121.00000       0.00000  
topohru00134           0.10164      30.00000      30.00000     121.00000       0.00000  
topohru00135           0.05113      30.00000      30.00000     121.00000       0.00000  
topohru00136           0.04779      30.00000      30.00000     121.00000       0.00000  
topohru00137           0.08710      30.00000      30.00000     121.00000       0.00000  
topohru00138           0.14921      30.00000      30.00000     121.00000       0.00000  
topohru00139           0.11993      30.00000      30.00000     121.00000       0.00000  
topohru00140           0.14343      30.00000      30.00000     121.00000       0.00000  
topohru00141           0.05755      30.00000      30.00000     121.00000       0.00000  
topohru00142           0.10742      30.00000      30.00000     121.00000       0.00000  
topohru00143           0.11202      30.00000      30.00000     121.00000       0.00000  
topohru00144           0.01317      30.00000      30.00000     121.00000       0.00000  
topohru00145           0.04570      30.00000      30.00000     121.00000       0.00000  
topohru00146           0.01422      30.00000      30.00000     121.00000       0.00000  
topohru00147           0.13639      30.00000      30.00000     121.00000       0.00000  
topohru00148           0.03732      30.00000      30.00000     121.00000       0.00000  
topohru00149           0.05483      30.00000      30.00000     121.00000       0.00000  
topohru00150           0.19648      30.00000      30.00000     121.00000       0.00000  
topohru00151           0.06915      30.00000      30.00000     121.00000       0.00000  
topohru00152           0.03792      30.00000      30.00000     121.00000       0.00000  
topohru00153           0.09359      30.00000      30.00000     121.00000       0.00000  
topohru00154           0.05754      30.00000      30.00000     121.00000       0.00000  
topohru00155           0.07171      30.00000      30.00000     121.00000       0.00000  
topohru00156           0.02878      30.00000      30.00000     121.00000       0.00000  
topohru00157           0.10888      30.00000      30.00000     121.00000       0.00000  
topohru00158           0.04032      30.00000      30.00000     121.00000       0.00000  
topohru00159           0.16701      30.00000      30.00000     121.00000       0.00000  
topohru00160           0.21666      30.00000      30.00000     121.00000       0.00000  
topohru00161           0.06635      30.00000      30.00000     121.00000       0.00000  
topohru00162           0.02185      30.00000      30.00000     121.00000       0.00000  
topohru00163           0.12239      30.00000      30.00000     121.00000       0.00000  
topohru00164           0.08544      30.00000      30.00000     121.00000       0.00000  
topohru00165           0.15176      30.00000      30.00000     121.00000       0.00000  
topohru00166           0.01937      30.00000      30.00000     121.00000       0.00000  
topohru00167           0.01505      30.00000      30.00000     121.00000       0.00000  
topohru00168           0.01761      30.00000      30.00000     121.00000       0.00000  
topohru00169           0.31838      30.00000      30.00000     121.00000       0.00000  
topohru00170           0.16536      30.00000      30.00000     121.00000       0.00000  
topohru00171           0.24259      30.00000      30.00000     121.00000       0.00000  
topohru00172           0.18237      30.00000      30.00000     121.00000       0.00000  
topohru00173           0.22189      30.00000      30.00000     121.00000       0.00000  
topohru00174           0.13065      30.00000      30.00000     121.00000       0.00000  
topohru00175           0.08359      30.00000      30.00000     121.00000       0.00000  
topohru00176           0.07538      30.00000      30.00000     121.00000       0.00000  
topohru00177           0.02266      30.00000      30.00000     121.00000       0.00000  
topohru00178           0.01704      30.00000      30.00000     121.00000       0.00000  
topohru00179           0.01705      30.00000      30.00000     121.00000       0.00000  
topohru00180           0.12006      30.00000      30.00000     121.00000       0.00000  
topohru00181           0.03867      30.00000      30.00000     121.00000       0.00000  
topohru00182           0.02071      30.00000      30.00000     121.00000       0.00000  
topohru00183           0.02902      30.00000      30.00000     121.00000       0.00000  
topohru00184           0.06343      30.00000      30.00000     121.00000       0.00000  
topohru00185           0.05518      30.00000      30.00000     121.00000       0.00000  
topohru00186           0.04192      30.00000      30.00000     121.00000       0.00000  
topohru00187           0.02243      30.00000      30.00000     121.00000       0.00000  
topohru00188           0.07564      30.00000      30.00000     121.00000       0.00000  
topohru00189           0.07999      30.00000      30.00000     121.00000       0.00000  
topohru00190           0.14787      30.00000      30.00000     121.00000       0.00000  
topohru00191           0.04487      30.00000      30.00000     121.00000       0.00000  
topohru00192           0.08704      30.00000      30.00000     121.00000       0.00000  
topohru00193           0.06345      30.00000      30.00000     121.00000       0.00000  
topohru00194           0.08770      30.00000      30.00000     121.00000       0.00000  
topohru00195           0.03346      30.00000      30.00000     121.00000       0.00000  
topohru00196           0.04356      30.00000      30.00000     121.00000       0.00000  
topohru00197           0.06099      30.00000      30.00000     121.00000       0.00000  
topohru00198           0.00736      30.00000      30.00000     121.00000       0.00000  
topohru00199           0.04268      30.00000      30.00000     121.00000       0.00000  
topohru00200           0.09434      30.00000      30.00000     121.00000       0.00000  
topohru00201           0.06090      30.00000      30.00000     121.00000       0.00000  
topohru00202           0.01971      30.00000      30.00000     121.00000       0.00000  
topohru00203           0.03570      30.00000      30.00000     121.00000       0.00000  
topohru00204           0.10987      30.00000      30.00000     121.00000       0.00000  
topohru00205           0.06089      30.00000      30.00000     121.00000       0.00000  
topohru00206           0.03241      30.00000      30.00000     121.00000       0.00000  
topohru00207           0.06626      30.00000      30.00000     121.00000       0.00000  
topohru00208           0.01836      30.00000      30.00000     121.00000       0.00000  
topohru00209           0.03584      30.00000      30.00000     121.00000       0.00000  
topohru00210           0.27060      30.00000      30.00000     121.00000       0.00000  
topohru00211           0.19792      30.00000      30.00000     121.00000       0.00000  
topohru00212           0.06647      30.00000      30.00000     121.00000       0.00000  
topohru00213           0.02107      30.00000      30.00000     121.00000       0.00000  
topohru00214           0.04190      30.00000      30.00000     121.00000       0.00000  
topohru00215           0.14683      30.00000      30.00000     121.00000       0.00000  
topohru00216           0.02304      30.00000      30.00000     121.00000       0.00000  
topohru00217           0.00769      30.00000      30.00000     121.00000       0.00000  
topohru00218           0.04231      30.00000      30.00000     121.00000       0.00000  
topohru00219           0.03770      30.00000      30.00000     121.00000       0.00000  
topohru00220           0.04383      30.00000      30.00000     121.00000       0.00000  
topohru00221           0.07838      30.00000      30.00000     121.00000       0.00000  
topohru00222           0.04558      30.00000      30.00000     121.00000       0.00000  
topohru00223           0.07392      30.00000      30.00000     121.00000       0.00000  
topohru00224           0.06967      30.00000      30.00000     121.00000       0.00000  
topohru00225           0.05218      30.00000      30.00000     121.00000       0.00000  
topohru00226           0.02845      30.00000      30.00000     121.00000       0.00000  
topohru00227           0.09459      30.00000      30.00000     121.00000       0.00000  
topohru00228           0.14407      30.00000      30.00000     121.00000       0.00000  
topohru00229           0.05909      30.00000      30.00000     121.00000       0.00000  
topohru00230           0.22182      30.00000      30.00000     121.00000       0.00000  
topohru00231           0.07159      30.00000      30.00000     121.00000       0.00000  
topohru00232           0.05520      30.00000      30.00000     121.00000       0.00000  
topohru00233           0.10593      30.00000      30.00000     121.00000       0.00000  
topohru00234           0.01031      30.00000      30.00000     121.00000       0.00000  
topohru00235           0.03970      30.00000      30.00000     121.00000       0.00000  
topohru00236           0.10166      30.00000      30.00000     121.00000       0.00000  
topohru00237           0.02894      30.00000      30.00000     121.00000       0.00000  
topohru00238           0.05181      30.00000      30.00000     121.00000       0.00000  
topohru00239           0.09729      30.00000      30.00000     121.00000       0.00000  
topohru00240           0.04961      30.00000      30.00000     121.00000       0.00000  
topohru00241           0.01591      30.00000      30.00000     121.00000       0.00000  
topohru00242           0.03533      30.00000      30.00000     121.00000       0.00000  
topohru00243           0.02170      30.00000      30.00000     121.00000       0.00000  
topohru00244           0.03285      30.00000      30.00000     121.00000       0.00000  
topohru00245           0.00876      30.00000      30.00000     121.00000       0.00000  
topohru00246           0.12821      30.00000      30.00000     121.00000       0.00000  
topohru00247           0.03792      30.00000      30.00000     121.00000       0.00000  
topohru00248           0.02491      30.00000      30.00000     121.00000       0.00000  
topohru00249           0.02382      30.00000      30.00000     121.00000       0.00000  
topohru00250           0.02133      30.00000      30.00000     121.00000       0.00000  
topohru00251           0.09090      30.00000      30.00000     121.00000       0.00000  
topohru00252           0.12623      30.00000      30.00000     121.00000       0.00000  
topohru00253           0.04872      30.00000      30.00000     121.00000       0.00000  
topohru00254           0.01657      30.00000      30.00000     121.00000       0.00000  
topohru00255           0.09252      30.00000      30.00000     121.00000       0.00000  
topohru00256           0.04570      30.00000      30.00000     121.00000       0.00000  
topohru00257           0.04920      30.00000      30.00000     121.00000       0.00000  
topohru00258           0.12330      30.00000      30.00000     121.00000       0.00000  
topohru00259           0.01855      30.00000      30.00000     121.00000       0.00000  
topohru00260           0.04566      30.00000      30.00000     121.00000       0.00000  
topohru00261           0.06136      30.00000      30.00000     121.00000       0.00000  
topohru00262           0.10482      30.00000      30.00000     121.00000       0.00000  
topohru00263           0.08636      30.00000      30.00000     121.00000       0.00000  
topohru00264           0.06657      30.00000      30.00000     121.00000       0.00000  
topohru00265           0.02885      30.00000      30.00000     121.00000       0.00000  
topohru00266           0.14366      30.00000      30.00000     121.00000       0.00000  
topohru00267           0.11536      30.00000      30.00000     121.00000       0.00000  
topohru00268           0.12858      30.00000      30.00000     121.00000       0.00000  
topohru00269           0.09170      30.00000      30.00000     121.00000       0.00000  
topohru00270           0.08271      30.00000      30.00000     121.00000       0.00000  
topohru00271           0.07736      30.00000      30.00000     121.00000       0.00000  
topohru00272           0.10580      30.00000      30.00000     121.00000       0.00000  
topohru00273           0.11529      30.00000      30.00000     121.00000       0.00000  
topohru00274           0.08144      30.00000      30.00000     121.00000       0.00000  
topohru00275           0.04055      30.00000      30.00000     121.00000       0.00000  
topohru00276           0.09476      30.00000      30.00000     121.00000       0.00000  
topohru00277           0.03608      30.00000      30.00000     121.00000       0.00000  
topohru00278           0.05784      30.00000      30.00000     121.00000       0.00000  
topohru00279           0.04528      30.00000      30.00000     121.00000       0.00000  
topohru00280           0.04761      30.00000      30.00000     121.00000       0.00000  
topohru00281           0.07939      30.00000      30.00000     121.00000       0.00000  
topohru00282           0.07109      30.00000      30.00000     121.00000       0.00000  
topohru00283           0.05905      30.00000      30.00000     121.00000       0.00000  
topohru00284           0.10267      30.00000      30.00000     121.00000       0.00000  
topohru00285           0.05566      30.00000      30.00000     121.00000       0.00000  
topohru00286           0.09746      30.00000      30.00000     121.00000       0.00000  
topohru00287           0.05966      30.00000      30.00000     121.00000       0.00000  
topohru00288           0.03843      30.00000      30.00000     121.00000       0.00000  
topohru00289           0.14044      30.00000      30.00000     121.00000       0.00000  
topohru00290           0.07073      30.00000      30.00000     121.00000       0.00000  
topohru00291           0.06108      30.00000      30.00000     121.00000       0.00000  
topohru00292           0.07531      30.00000      30.00000     121.00000       0.00000  
topohru00293           0.09890      30.00000      30.00000     121.00000       0.00000  
topohru00294           0.08527      30.00000      30.00000     121.00000       0.00000  
topohru00295           0.05293      30.00000      30.00000     121.00000       0.00000  
topohru00296           0.04828      30.00000      30.00000     121.00000       0.00000  
topohru00297           0.09677      30.00000      30.00000     121.00000       0.00000  
topohru00298           0.08144      30.00000      30.00000     121.00000       0.00000  
topohru00299           0.06409      30.00000      30.00000     121.00000       0.00000  
topohru00300           0.03997      30.00000      30.00000     121.00000       0.00000  
topohru00301           0.01151      30.00000      30.00000     121.00000       0.00000  
topohru00302           0.03497      30.00000      30.00000     121.00000       0.00000  
topohru00303           0.07126      30.00000      30.00000     121.00000       0.00000  
topohru00304           0.08838      30.00000      30.00000     121.00000       0.00000  
topohru00305           0.09622      30.00000      30.00000     121.00000       0.00000  
topohru00306           0.06711      30.00000      30.00000     121.00000       0.00000  
topohru00307           0.02109      30.00000      30.00000     121.00000       0.00000  
topohru00308           0.02874      30.00000      30.00000     121.00000       0.00000  
topohru00309           0.05543      30.00000      30.00000     121.00000       0.00000  
topohru00310           0.13817      30.00000      30.00000     121.00000       0.00000  
topohru00311           0.05004      30.00000      30.00000     121.00000       0.00000  
topohru00312           0.07997      30.00000      30.00000     121.00000       0.00000  
topohru00313           0.08122      30.00000      30.00000     121.00000       0.00000  
topohru00314           0.06239      30.00000      30.00000     121.00000       0.00000  
topohru00315           0.11128      30.00000      30.00000     121.00000       0.00000  
topohru00316           0.06444      30.00000      30.00000     121.00000       0.00000  
topohru00317           0.04974      30.00000      30.00000     121.00000       0.00000  
topohru00318           0.08264      30.00000      30.00000     121.00000       0.00000  
topohru00319           0.02172      30.00000      30.00000     121.00000       0.00000  
topohru00320           0.09611      30.00000      30.00000     121.00000       0.00000  
topohru00321           0.04982      30.00000      30.00000     121.00000       0.00000  
topohru00322           0.12872      30.00000      30.00000     121.00000       0.00000  
topohru00323           0.06994      30.00000      30.00000     121.00000       0.00000  
topohru00324           0.16973      30.00000      30.00000     121.00000       0.00000  
topohru00325           0.07934      30.00000      30.00000     121.00000       0.00000  
topohru00326           0.02331      30.00000      30.00000     121.00000       0.00000  
topohru00327           0.06814      30.00000      30.00000     121.00000       0.00000  
topohru00328           0.07282      30.00000      30.00000     121.00000       0.00000  
topohru00329           0.08792      30.00000      30.00000     121.00000       0.00000  
topohru00330           0.15715      30.00000      30.00000     121.00000       0.00000  
topohru00331           0.03326      30.00000      30.00000     121.00000       0.00000  
topohru00332           0.02793      30.00000      30.00000     121.00000       0.00000  
topohru00333           0.02195      30.00000      30.00000     121.00000       0.00000  
topohru00334           0.10388      30.00000      30.00000     121.00000       0.00000  
topohru00335           0.05712      30.00000      30.00000     121.00000       0.00000  