wetland.wet: written by SWAT+ editor v2.1.0 on 2026-01-19 18:46 for SWAT+ rev.2.1.4
      id  name                          init               hyd               rel               sed               nut  
       1  wet03223                  initwet1       hydwet03223           wetland           sedwet1           nutwet1  
       2  wet03224                  initwet1       hydwet03224           wetland           sedwet1           nutwet1  
       3  wet03225                  initwet1       hydwet03225           wetland           sedwet1           nutwet1  
       4  wet03226                  initwet1       hydwet03226           wetland           sedwet1           nutwet1  
       5  wet03227                  initwet1       hydwet03227           wetland           sedwet1           nutwet1  
       6  wet03228                  initwet1       hydwet03228           wetland           sedwet1           nutwet1  
       7  wet03229                  initwet1       hydwet03229           wetland           sedwet1           nutwet1  
       8  wet03230                  initwet1       hydwet03230           wetland           sedwet1           nutwet1  
       9  wet03231                  initwet1       hydwet03231           wetland           sedwet1           nutwet1  
      10  wet03232                  initwet1       hydwet03232           wetland           sedwet1           nutwet1  
      11  wet03233                  initwet1       hydwet03233           wetland           sedwet1           nutwet1  
      12  wet03234                  initwet1       hydwet03234           wetland           sedwet1           nutwet1  
      13  wet03235                  initwet1       hydwet03235           wetland           sedwet1           nutwet1  
      14  wet03236                  initwet1       hydwet03236           wetland           sedwet1           nutwet1  
      15  wet03237                  initwet1       hydwet03237           wetland           sedwet1           nutwet1  
      16  wet03238                  initwet1       hydwet03238           wetland           sedwet1           nutwet1  
      17  wet03239                  initwet1       hydwet03239           wetland           sedwet1           nutwet1  
      18  wet03240                  initwet1       hydwet03240           wetland           sedwet1           nutwet1  
      19  wet03241                  initwet1       hydwet03241           wetland           sedwet1           nutwet1  
      20  wet03242                  initwet1       hydwet03242           wetland           sedwet1           nutwet1  
      21  wet03243                  initwet1       hydwet03243           wetland           sedwet1           nutwet1  
      22  wet03244                  initwet1       hydwet03244           wetland           sedwet1           nutwet1  
      23  wet03245                  initwet1       hydwet03245           wetland           sedwet1           nutwet1  
      24  wet03246                  initwet1       hydwet03246           wetland           sedwet1           nutwet1  
      25  wet03247                  initwet1       hydwet03247           wetland           sedwet1           nutwet1  
      26  wet03248                  initwet1       hydwet03248           wetland           sedwet1           nutwet1  
      27  wet03249                  initwet1       hydwet03249           wetland           sedwet1           nutwet1  
      28  wet03250                  initwet1       hydwet03250           wetland           sedwet1           nutwet1  
      29  wet03251                  initwet1       hydwet03251           wetland           sedwet1           nutwet1  
      30  wet03252                  initwet1       hydwet03252           wetland           sedwet1           nutwet1  
      31  wet03253                  initwet1       hydwet03253           wetland           sedwet1           nutwet1  
      32  wet03254                  initwet1       hydwet03254           wetland           sedwet1           nutwet1  
      33  wet03255                  initwet1       hydwet03255           wetland           sedwet1           nutwet1  
      34  wet03256                  initwet1       hydwet03256           wetland           sedwet1           nutwet1  
      35  wet03257                  initwet1       hydwet03257           wetland           sedwet1           nutwet1  
      36  wet03258                  initwet1       hydwet03258           wetland           sedwet1           nutwet1  
      37  wet03259                  initwet1       hydwet03259           wetland           sedwet1           nutwet1  
      38  wet03260                  initwet1       hydwet03260           wetland           sedwet1           nutwet1  
      39  wet03261                  initwet1       hydwet03261           wetland           sedwet1           nutwet1  
      40  wet03262                  initwet1       hydwet03262           wetland           sedwet1           nutwet1  
      41  wet03263                  initwet1       hydwet03263           wetland           sedwet1           nutwet1  
      42  wet03264                  initwet1       hydwet03264           wetland           sedwet1           nutwet1  
      43  wet03265                  initwet1       hydwet03265           wetland           sedwet1           nutwet1  
      44  wet03266                  initwet1       hydwet03266           wetland           sedwet1           nutwet1  
      45  wet03267                  initwet1       hydwet03267           wetland           sedwet1           nutwet1  
      46  wet03268                  initwet1       hydwet03268           wetland           sedwet1           nutwet1  
      47  wet03269                  initwet1       hydwet03269           wetland           sedwet1           nutwet1  
      48  wet03270                  initwet1       hydwet03270           wetland           sedwet1           nutwet1  
      49  wet03271                  initwet1       hydwet03271           wetland           sedwet1           nutwet1  
      50  wet03272                  initwet1       hydwet03272           wetland           sedwet1           nutwet1  
      51  wet03273                  initwet1       hydwet03273           wetland           sedwet1           nutwet1  
      52  wet03274                  initwet1       hydwet03274           wetland           sedwet1           nutwet1  
      53  wet03275                  initwet1       hydwet03275           wetland           sedwet1           nutwet1  
      54  wet03276                  initwet1       hydwet03276           wetland           sedwet1           nutwet1  
      55  wet03277                  initwet1       hydwet03277           wetland           sedwet1           nutwet1  
      56  wet03278                  initwet1       hydwet03278           wetland           sedwet1           nutwet1  
      57  wet03279                  initwet1       hydwet03279           wetland           sedwet1           nutwet1  
      58  wet03280                  initwet1       hydwet03280           wetland           sedwet1           nutwet1  
      59  wet03281                  initwet1       hydwet03281           wetland           sedwet1           nutwet1  
      60  wet03282                  initwet1       hydwet03282           wetland           sedwet1           nutwet1  
      61  wet03283                  initwet1       hydwet03283           wetland           sedwet1           nutwet1  
      62  wet03284                  initwet1       hydwet03284           wetland           sedwet1           nutwet1  
      63  wet03285                  initwet1       hydwet03285           wetland           sedwet1           nutwet1  
      64  wet03286                  initwet1       hydwet03286           wetland           sedwet1           nutwet1  
      65  wet03287                  initwet1       hydwet03287           wetland           sedwet1           nutwet1  
      66  wet03288                  initwet1       hydwet03288           wetland           sedwet1           nutwet1  
      67  wet03289                  initwet1       hydwet03289           wetland           sedwet1           nutwet1  
      68  wet03290                  initwet1       hydwet03290           wetland           sedwet1           nutwet1  
      69  wet03291                  initwet1       hydwet03291           wetland           sedwet1           nutwet1  
      70  wet03292                  initwet1       hydwet03292           wetland           sedwet1           nutwet1  
      71  wet03293                  initwet1       hydwet03293           wetland           sedwet1           nutwet1  
      72  wet03294                  initwet1       hydwet03294           wetland           sedwet1           nutwet1  
      73  wet03295                  initwet1       hydwet03295           wetland           sedwet1           nutwet1  
      74  wet03296                  initwet1       hydwet03296           wetland           sedwet1           nutwet1  
      75  wet03297                  initwet1       hydwet03297           wetland           sedwet1           nutwet1  
      76  wet03298                  initwet1       hydwet03298           wetland           sedwet1           nutwet1  
      77  wet03299                  initwet1       hydwet03299           wetland           sedwet1           nutwet1  
      78  wet03300                  initwet1       hydwet03300           wetland           sedwet1           nutwet1  
      79  wet03301                  initwet1       hydwet03301           wetland           sedwet1           nutwet1  
      80  wet03302                  initwet1       hydwet03302           wetland           sedwet1           nutwet1  
      81  wet03303                  initwet1       hydwet03303           wetland           sedwet1           nutwet1  
      82  wet03304                  initwet1       hydwet03304           wetland           sedwet1           nutwet1  
      83  wet03305                  initwet1       hydwet03305           wetland           sedwet1           nutwet1  
      84  wet03306                  initwet1       hydwet03306           wetland           sedwet1           nutwet1  
      85  wet03307                  initwet1       hydwet03307           wetland           sedwet1           nutwet1  
      86  wet03308                  initwet1       hydwet03308           wetland           sedwet1           nutwet1  
      87  wet03309                  initwet1       hydwet03309           wetland           sedwet1           nutwet1  
      88  wet03310                  initwet1       hydwet03310           wetland           sedwet1           nutwet1  
      89  wet03311                  initwet1       hydwet03311           wetland           sedwet1           nutwet1  
      90  wet03312                  initwet1       hydwet03312           wetland           sedwet1           nutwet1  
      91  wet03313                  initwet1       hydwet03313           wetland           sedwet1           nutwet1  
      92  wet03314                  initwet1       hydwet03314           wetland           sedwet1           nutwet1  
      93  wet03315                  initwet1       hydwet03315           wetland           sedwet1           nutwet1  
      94  wet03316                  initwet1       hydwet03316           wetland           sedwet1           nutwet1  
      95  wet03317                  initwet1       hydwet03317           wetland           sedwet1           nutwet1  
      96  wet03318                  initwet1       hydwet03318           wetland           sedwet1           nutwet1  
      97  wet03319                  initwet1       hydwet03319           wetland           sedwet1           nutwet1  
      98  wet03320                  initwet1       hydwet03320           wetland           sedwet1           nutwet1  
      99  wet03321                  initwet1       hydwet03321           wetland           sedwet1           nutwet1  
     100  wet03322                  initwet1       hydwet03322           wetland           sedwet1           nutwet1  
     101  wet03323                  initwet1       hydwet03323           wetland           sedwet1           nutwet1  
     102  wet03324                  initwet1       hydwet03324           wetland           sedwet1           nutwet1  
     103  wet03325                  initwet1       hydwet03325           wetland           sedwet1           nutwet1  
     104  wet03326                  initwet1       hydwet03326           wetland           sedwet1           nutwet1  
     105  wet03327                  initwet1       hydwet03327           wetland           sedwet1           nutwet1  
     106  wet03328                  initwet1       hydwet03328           wetland           sedwet1           nutwet1  
     107  wet03329                  initwet1       hydwet03329           wetland           sedwet1           nutwet1  
     108  wet03330                  initwet1       hydwet03330           wetland           sedwet1           nutwet1  
     109  wet03331                  initwet1       hydwet03331           wetland           sedwet1           nutwet1  
     110  wet03332                  initwet1       hydwet03332           wetland           sedwet1           nutwet1  
     111  wet03333                  initwet1       hydwet03333           wetland           sedwet1           nutwet1  
     112  wet03334                  initwet1       hydwet03334           wetland           sedwet1           nutwet1  
     113  wet03335                  initwet1       hydwet03335           wetland           sedwet1           nutwet1  
     114  wet03336                  initwet1       hydwet03336           wetland           sedwet1           nutwet1  
     115  wet03337                  initwet1       hydwet03337           wetland           sedwet1           nutwet1  
     116  wet03338                  initwet1       hydwet03338           wetland           sedwet1           nutwet1  
     117  wet03339                  initwet1       hydwet03339           wetland           sedwet1           nutwet1  
     118  wet03340                  initwet1       hydwet03340           wetland           sedwet1           nutwet1  
     119  wet03341                  initwet1       hydwet03341           wetland           sedwet1           nutwet1  
     120  wet03342                  initwet1       hydwet03342           wetland           sedwet1           nutwet1  
     121  wet03343                  initwet1       hydwet03343           wetland           sedwet1           nutwet1  
     122  wet03344                  initwet1       hydwet03344           wetland           sedwet1           nutwet1  
     123  wet03345                  initwet1       hydwet03345           wetland           sedwet1           nutwet1  
     124  wet03346                  initwet1       hydwet03346           wetland           sedwet1           nutwet1  
     125  wet03347                  initwet1       hydwet03347           wetland           sedwet1           nutwet1  
     126  wet03348                  initwet1       hydwet03348           wetland           sedwet1           nutwet1  
     127  wet03349                  initwet1       hydwet03349           wetland           sedwet1           nutwet1  
     128  wet03350                  initwet1       hydwet03350           wetland           sedwet1           nutwet1  
     129  wet03351                  initwet1       hydwet03351           wetland           sedwet1           nutwet1  
     130  wet03352                  initwet1       hydwet03352           wetland           sedwet1           nutwet1  
     131  wet03353                  initwet1       hydwet03353           wetland           sedwet1           nutwet1  
     132  wet03354                  initwet1       hydwet03354           wetland           sedwet1           nutwet1  
     133  wet03355                  initwet1       hydwet03355           wetland           sedwet1           nutwet1  
     134  wet03356                  initwet1       hydwet03356           wetland           sedwet1           nutwet1  
     135  wet03357                  initwet1       hydwet03357           wetland           sedwet1           nutwet1  
     136  wet03358                  initwet1       hydwet03358           wetland           sedwet1           nutwet1  
     137  wet03359                  initwet1       hydwet03359           wetland           sedwet1           nutwet1  
     138  wet03360                  initwet1       hydwet03360           wetland           sedwet1           nutwet1  
     139  wet03361                  initwet1       hydwet03361           wetland           sedwet1           nutwet1  
     140  wet03362                  initwet1       hydwet03362           wetland           sedwet1           nutwet1  
     141  wet03363                  initwet1       hydwet03363           wetland           sedwet1           nutwet1  
     142  wet03364                  initwet1       hydwet03364           wetland           sedwet1           nutwet1  
     143  wet03365                  initwet1       hydwet03365           wetland           sedwet1           nutwet1  
     144  wet03366                  initwet1       hydwet03366           wetland           sedwet1           nutwet1  
     145  wet03367                  initwet1       hydwet03367           wetland           sedwet1           nutwet1  
     146  wet03368                  initwet1       hydwet03368           wetland           sedwet1           nutwet1  
     147  wet03369                  initwet1       hydwet03369           wetland           sedwet1           nutwet1  
     148  wet03370                  initwet1       hydwet03370           wetland           sedwet1           nutwet1  
     149  wet03371                  initwet1       hydwet03371           wetland           sedwet1           nutwet1  
     150  wet03372                  initwet1       hydwet03372           wetland           sedwet1           nutwet1  
     151  wet03373                  initwet1       hydwet03373           wetland           sedwet1           nutwet1  
     152  wet03374                  initwet1       hydwet03374           wetland           sedwet1           nutwet1  
     153  wet03375                  initwet1       hydwet03375           wetland           sedwet1           nutwet1  
     154  wet03376                  initwet1       hydwet03376           wetland           sedwet1           nutwet1  
     155  wet03377                  initwet1       hydwet03377           wetland           sedwet1           nutwet1  
     156  wet03378                  initwet1       hydwet03378           wetland           sedwet1           nutwet1  
     157  wet03379                  initwet1       hydwet03379           wetland           sedwet1           nutwet1  
     158  wet03380                  initwet1       hydwet03380           wetland           sedwet1           nutwet1  
     159  wet03381                  initwet1       hydwet03381           wetland           sedwet1           nutwet1  
     160  wet03382                  initwet1       hydwet03382           wetland           sedwet1           nutwet1  
     161  wet03383                  initwet1       hydwet03383           wetland           sedwet1           nutwet1  
     162  wet03384                  initwet1       hydwet03384           wetland           sedwet1           nutwet1  
     163  wet03385                  initwet1       hydwet03385           wetland           sedwet1           nutwet1  
     164  wet03386                  initwet1       hydwet03386           wetland           sedwet1           nutwet1  
     165  wet03387                  initwet1       hydwet03387           wetland           sedwet1           nutwet1  
     166  wet03388                  initwet1       hydwet03388           wetland           sedwet1           nutwet1  
     167  wet03389                  initwet1       hydwet03389           wetland           sedwet1           nutwet1  
     168  wet03390                  initwet1       hydwet03390           wetland           sedwet1           nutwet1  
     169  wet03391                  initwet1       hydwet03391           wetland           sedwet1           nutwet1  
     170  wet03392                  initwet1       hydwet03392           wetland           sedwet1           nutwet1  
     171  wet03393                  initwet1       hydwet03393           wetland           sedwet1           nutwet1  
     172  wet03394                  initwet1       hydwet03394           wetland           sedwet1           nutwet1  
     173  wet03395                  initwet1       hydwet03395           wetland           sedwet1           nutwet1  
     174  wet03396                  initwet1       hydwet03396           wetland           sedwet1           nutwet1  
     175  wet03397                  initwet1       hydwet03397           wetland           sedwet1           nutwet1  
     176  wet03398                  initwet1       hydwet03398           wetland           sedwet1           nutwet1  
     177  wet03399                  initwet1       hydwet03399           wetland           sedwet1           nutwet1  
     178  wet03400                  initwet1       hydwet03400           wetland           sedwet1           nutwet1  
     179  wet03401                  initwet1       hydwet03401           wetland           sedwet1           nutwet1  
     180  wet03402                  initwet1       hydwet03402           wetland           sedwet1           nutwet1  
     181  wet03403                  initwet1       hydwet03403           wetland           sedwet1           nutwet1  
     182  wet03404                  initwet1       hydwet03404           wetland           sedwet1           nutwet1  
     183  wet03405                  initwet1       hydwet03405           wetland           sedwet1           nutwet1  
     184  wet03406                  initwet1       hydwet03406           wetland           sedwet1           nutwet1  
     185  wet03407                  initwet1       hydwet03407           wetland           sedwet1           nutwet1  
     186  wet03408                  initwet1       hydwet03408           wetland           sedwet1           nutwet1  
     187  wet03409                  initwet1       hydwet03409           wetland           sedwet1           nutwet1  
     188  wet03410                  initwet1       hydwet03410           wetland           sedwet1           nutwet1  
     189  wet03411                  initwet1       hydwet03411           wetland           sedwet1           nutwet1  
     190  wet03412                  initwet1       hydwet03412           wetland           sedwet1           nutwet1  
     191  wet03413                  initwet1       hydwet03413           wetland           sedwet1           nutwet1  
     192  wet03414                  initwet1       hydwet03414           wetland           sedwet1           nutwet1  
     193  wet03415                  initwet1       hydwet03415           wetland           sedwet1           nutwet1  
     194  wet03416                  initwet1       hydwet03416           wetland           sedwet1           nutwet1  
     195  wet03417                  initwet1       hydwet03417           wetland           sedwet1           nutwet1  
     196  wet03418                  initwet1       hydwet03418           wetland           sedwet1           nutwet1  
     197  wet03419                  initwet1       hydwet03419           wetland           sedwet1           nutwet1  
     198  wet03420                  initwet1       hydwet03420           wetland           sedwet1           nutwet1  
     199  wet03421                  initwet1       hydwet03421           wetland           sedwet1           nutwet1  
     200  wet03422                  initwet1       hydwet03422           wetland           sedwet1           nutwet1  
     201  wet03423                  initwet1       hydwet03423           wetland           sedwet1           nutwet1  
     202  wet03424                  initwet1       hydwet03424           wetland           sedwet1           nutwet1  
     203  wet03425                  initwet1       hydwet03425           wetland           sedwet1           nutwet1  
     204  wet03426                  initwet1       hydwet03426           wetland           sedwet1           nutwet1  
     205  wet03427                  initwet1       hydwet03427           wetland           sedwet1           nutwet1  
     206  wet03428                  initwet1       hydwet03428           wetland           sedwet1           nutwet1  
     207  wet03429                  initwet1       hydwet03429           wetland           sedwet1           nutwet1  
     208  wet03430                  initwet1       hydwet03430           wetland           sedwet1           nutwet1  
     209  wet03431                  initwet1       hydwet03431           wetland           sedwet1           nutwet1  
     210  wet03432                  initwet1       hydwet03432           wetland           sedwet1           nutwet1  
     211  wet03433                  initwet1       hydwet03433           wetland           sedwet1           nutwet1  
     212  wet03434                  initwet1       hydwet03434           wetland           sedwet1           nutwet1  
     213  wet03435                  initwet1       hydwet03435           wetland           sedwet1           nutwet1  
     214  wet03436                  initwet1       hydwet03436           wetland           sedwet1           nutwet1  
     215  wet03437                  initwet1       hydwet03437           wetland           sedwet1           nutwet1  
     216  wet03438                  initwet1       hydwet03438           wetland           sedwet1           nutwet1  
     217  wet03439                  initwet1       hydwet03439           wetland           sedwet1           nutwet1  
     218  wet03440                  initwet1       hydwet03440           wetland           sedwet1           nutwet1  
     219  wet03441                  initwet1       hydwet03441           wetland           sedwet1           nutwet1  
     220  wet03442                  initwet1       hydwet03442           wetland           sedwet1           nutwet1  
     221  wet03443                  initwet1       hydwet03443           wetland           sedwet1           nutwet1  
     222  wet03444                  initwet1       hydwet03444           wetland           sedwet1           nutwet1  
     223  wet03445                  initwet1       hydwet03445           wetland           sedwet1           nutwet1  
     224  wet03446                  initwet1       hydwet03446           wetland           sedwet1           nutwet1  
     225  wet03447                  initwet1       hydwet03447           wetland           sedwet1           nutwet1  
     226  wet03448                  initwet1       hydwet03448           wetland           sedwet1           nutwet1  
     227  wet03449                  initwet1       hydwet03449           wetland           sedwet1           nutwet1  
     228  wet03450                  initwet1       hydwet03450           wetland           sedwet1           nutwet1  
     229  wet03451                  initwet1       hydwet03451           wetland           sedwet1           nutwet1  
     230  wet03452                  initwet1       hydwet03452           wetland           sedwet1           nutwet1  
     231  wet03453                  initwet1       hydwet03453           wetland           sedwet1           nutwet1  
     232  wet03454                  initwet1       hydwet03454           wetland           sedwet1           nutwet1  
     233  wet03455                  initwet1       hydwet03455           wetland           sedwet1           nutwet1  
     234  wet03456                  initwet1       hydwet03456           wetland           sedwet1           nutwet1  
     235  wet03457                  initwet1       hydwet03457           wetland           sedwet1           nutwet1  
     236  wet03458                  initwet1       hydwet03458           wetland           sedwet1           nutwet1  
     237  wet03459                  initwet1       hydwet03459           wetland           sedwet1           nutwet1  
     238  wet03460                  initwet1       hydwet03460           wetland           sedwet1           nutwet1  
     239  wet03461                  initwet1       hydwet03461           wetland           sedwet1           nutwet1  
     240  wet03462                  initwet1       hydwet03462           wetland           sedwet1           nutwet1  
     241  wet03463                  initwet1       hydwet03463           wetland           sedwet1           nutwet1  
     242  wet03464                  initwet1       hydwet03464           wetland           sedwet1           nutwet1  
     243  wet03465                  initwet1       hydwet03465           wetland           sedwet1           nutwet1  
     244  wet03466                  initwet1       hydwet03466           wetland           sedwet1           nutwet1  
     245  wet03467                  initwet1       hydwet03467           wetland           sedwet1           nutwet1  
     246  wet03468                  initwet1       hydwet03468           wetland           sedwet1           nutwet1  
     247  wet03469                  initwet1       hydwet03469           wetland           sedwet1           nutwet1  
     248  wet03470                  initwet1       hydwet03470           wetland           sedwet1           nutwet1  
     249  wet03471                  initwet1       hydwet03471           wetland           sedwet1           nutwet1  
     250  wet03472                  initwet1       hydwet03472           wetland           sedwet1           nutwet1  