landuse.lum: written by SWAT+ editor v2.1.0 on 2026-01-19 18:47 for SWAT+ rev.2.1.4, edited manually on 2026-01-19 18:50:34.390136
name                         cal_group          plnt_com               mgt               cn2         cons_prac             urban            urb_ro           ov_mann              tile               sep               vfs              grww               bmp
agrl1_lum                         null         nopl_comm              null        rc_strow_g     up_down_slope              null              null     up_down_slope              null              null              null              null              null
agrl10_lum                        null         nopl_comm              null        rc_strow_g     up_down_slope              null              null     up_down_slope              null              null              null              null              null
agrl100_lum                       null         nopl_comm              null        rc_strow_g     up_down_slope              null              null     up_down_slope              null              null              null              null              null
agrl1000_lum                      null         nopl_comm              null        rc_strow_g     up_down_slope              null              null     up_down_slope              null              null              null              null              null
agrl1001_lum                      null         nopl_comm              null        rc_strow_g     up_down_slope              null              null     up_down_slope              null              null              null              null              null
agrl1002_lum                      null         nopl_comm              null        rc_strow_g     up_down_slope              null              null     up_down_slope              null              null              null              null              null
agrl1003_lum                      null         nopl_comm              null        rc_strow_g     up_down_slope              null              null     up_down_slope              null              null              null              null              null
agrl1004_lum                      null         nopl_comm              null        rc_strow_g     up_down_slope              null              null     up_down_slope              null              null              null              null              null
agrl1005_lum                      null         nopl_comm              null        rc_strow_g     up_down_slope              null              null     up_down_slope              null              null              null              null              null
agrl1006_lum                      null         nopl_comm              null        rc_strow_g     up_down_slope              null              null     up_down_slope              null              null              null              null              null
agrl1007_lum                      null         nopl_comm              null        rc_strow_g     up_down_slope              null              null     up_down_slope              null              null              null              null              null
agrl1008_lum                      null         nopl_comm              null        rc_strow_g     up_down_slope              null              null     up_down_slope              null              null              null              null              null
agrl1009_lum                      null         nopl_comm              null        rc_strow_g     up_down_slope              null              null     up_down_slope              null              null              null              null              null
agrl101_lum                       null         nopl_comm              null        rc_strow_g     up_down_slope              null              null     up_down_slope              null              null              null              null              null
agrl1010_lum                      null         nopl_comm              null        rc_strow_g     up_down_slope              null              null     up_down_slope              null              null              null              null              null
agrl1011_lum                      null         nopl_comm              null        rc_strow_g     up_down_slope              null              null     up_down_slope              null              null              null              null              null
agrl1012_lum                      null         nopl_comm              null        rc_strow_g     up_down_slope              null              null     up_down_slope              null              null              null              null              null
agrl1013_lum                      null         nopl_comm              null        rc_strow_g     up_down_slope              null              null     up_down_slope              null              null              null              null              null
agrl1014_lum                      null         nopl_comm              null        rc_strow_g     up_down_slope              null              null     up_down_slope              null              null              null              null              null
agrl1015_lum                      null         nopl_comm              null        rc_strow_g     up_down_slope              null              null     up_down_slope              null              null              null              null              null
agrl1016_lum                      null         nopl_comm              null        rc_strow_g     up_down_slope              null              null     up_down_slope              null              null              null              null              null
agrl1017_lum                      null         nopl_comm              null        rc_strow_g     up_down_slope              null              null     up_down_slope              null              null              null              null              null
agrl1018_lum                      null         nopl_comm              null        rc_strow_g     up_down_slope              null              null     up_down_slope              null              null              null              null              null
agrl1019_lum                      null         nopl_comm              null        rc_strow_g     up_down_slope              null              null     up_down_slope              null              null              null              null              null
agrl102_lum                       null         nopl_comm              null        rc_strow_g     up_down_slope              null              null     up_down_slope              null              null              null              null              null
agrl1020_lum                      null         nopl_comm              null        rc_strow_g     up_down_slope              null              null     up_down_slope              null              null              null              null              null
agrl1021_lum                      null         nopl_comm              null        rc_strow_g     up_down_slope              null              null     up_down_slope              null              null              null              null              null
agrl1022_lum                      null         nopl_comm              null        rc_strow_g     up_down_slope              null              null     up_down_slope              null              null              null              null              null
agrl1023_lum                      null         nopl_comm              null        rc_strow_g     up_down_slope              null              null     up_down_slope              null              null              null              null              null
agrl1024_lum                      null         nopl_comm              null        rc_strow_g     up_down_slope              null              null     up_down_slope              null              null              null              null              null
agrl1025_lum                      null         nopl_comm              null        rc_strow_g     up_down_slope              null              null     up_down_slope              null              null              null              null              null
agrl1026_lum                      null         nopl_comm              null        rc_strow_g     up_down_slope              null              null     up_down_slope              null              null              null              null              null
agrl1027_lum                      null         nopl_comm              null        rc_strow_g     up_down_slope              null              null     up_down_slope              null              null              null              null              null
agrl1028_lum                      null         nopl_comm              null        rc_strow_g     up_down_slope              null              null     up_down_slope              null              null              null              null              null
agrl1029_lum                      null         nopl_comm              null        rc_strow_g     up_down_slope              null              null     up_down_slope              null              null              null              null              null
agrl103_lum                       null         nopl_comm              null        rc_strow_g     up_down_slope              null              null     up_down_slope              null              null              null              null              null
agrl1030_lum                      null         nopl_comm              null        rc_strow_g     up_down_slope              null              null     up_down_slope              null              null              null              null              null
agrl1031_lum                      null         nopl_comm              null        rc_strow_g     up_down_slope              null              null     up_down_slope              null              null              null              null              null
agrl1032_lum                      null         nopl_comm              null        rc_strow_g     up_down_slope              null              null     up_down_slope              null              null              null              null              null
agrl1033_lum                      null         nopl_comm              null        rc_strow_g     up_down_slope              null              null     up_down_slope              null              null              null              null              null
agrl1034_lum                      null         nopl_comm              null        rc_strow_g     up_down_slope              null              null     up_down_slope              null              null              null              null              null
agrl1035_lum                      null         nopl_comm              null        rc_strow_g     up_down_slope              null              null     up_down_slope              null              null              null              null              null
agrl1036_lum                      null         nopl_comm              null        rc_strow_g     up_down_slope              null              null     up_down_slope              null              null              null              null              null
agrl1037_lum                      null         nopl_comm              null        rc_strow_g     up_down_slope              null              null     up_down_slope              null              null              null              null              null
agrl1038_lum                      null         nopl_comm              null        rc_strow_g     up_down_slope              null              null     up_down_slope              null              null              null              null              null
agrl1039_lum                      null         nopl_comm              null        rc_strow_g     up_down_slope              null              null     up_down_slope              null              null              null              null              null
agrl104_lum                       null         nopl_comm              null        rc_strow_g     up_down_slope              null              null     up_down_slope              null              null              null              null              null
agrl1040_lum                      null         nopl_comm              null        rc_strow_g     up_down_slope              null              null     up_down_slope              null              null              null              null              null
agrl1041_lum                      null         nopl_comm              null        rc_strow_g     up_down_slope              null              null     up_down_slope              null              null              null              null              null
agrl1042_lum                      null         nopl_comm              null        rc_strow_g     up_down_slope              null              null     up_down_slope              null              null              null              null              null
agrl1043_lum                      null         nopl_comm              null        rc_strow_g     up_down_slope              null              null     up_down_slope              null              null              null              null              null
agrl1044_lum                      null         nopl_comm              null        rc_strow_g     up_down_slope              null              null     up_down_slope              null              null              null              null              null
agrl1045_lum                      null         nopl_comm              null        rc_strow_g     up_down_slope              null              null     up_down_slope              null              null              null              null              null
agrl1046_lum                      null         nopl_comm              null        rc_strow_g     up_down_slope              null              null     up_down_slope              null              null              null              null              null
agrl1047_lum                      null         nopl_comm              null        rc_strow_g     up_down_slope              null              null     up_down_slope              null              null              null              null              null
agrl1048_lum                      null         nopl_comm              null        rc_strow_g     up_down_slope              null              null     up_down_slope              null              null              null              null              null
agrl1049_lum                      null         nopl_comm              null        rc_strow_g     up_down_slope              null              null     up_down_slope              null              null              null              null              null
agrl105_lum                       null         nopl_comm              null        rc_strow_g     up_down_slope              null              null     up_down_slope              null              null              null              null              null
agrl1050_lum                      null         nopl_comm              null        rc_strow_g     up_down_slope              null              null     up_down_slope              null              null              null              null              null
agrl1051_lum                      null         nopl_comm              null        rc_strow_g     up_down_slope              null              null     up_down_slope              null              null              null              null              null
agrl1052_lum                      null         nopl_comm              null        rc_strow_g     up_down_slope              null              null     up_down_slope              null              null              null              null              null
agrl1053_lum                      null         nopl_comm              null        rc_strow_g     up_down_slope              null              null     up_down_slope              null              null              null              null              null
agrl1054_lum                      null         nopl_comm              null        rc_strow_g     up_down_slope              null              null     up_down_slope              null              null              null              null              null
agrl1055_lum                      null         nopl_comm              null        rc_strow_g     up_down_slope              null              null     up_down_slope              null              null              null              null              null
agrl1056_lum                      null         nopl_comm              null        rc_strow_g     up_down_slope              null              null     up_down_slope              null              null              null              null              null
agrl1057_lum                      null         nopl_comm              null        rc_strow_g     up_down_slope              null              null     up_down_slope              null              null              null              null              null
agrl1058_lum                      null         nopl_comm              null        rc_strow_g     up_down_slope              null              null     up_down_slope              null              null              null              null              null
agrl1059_lum                      null         nopl_comm              null        rc_strow_g     up_down_slope              null              null     up_down_slope              null              null              null              null              null
agrl106_lum                       null         nopl_comm              null        rc_strow_g     up_down_slope              null              null     up_down_slope              null              null              null              null              null
agrl1060_lum                      null         nopl_comm              null        rc_strow_g     up_down_slope              null              null     up_down_slope              null              null              null              null              null
agrl1061_lum                      null         nopl_comm              null        rc_strow_g     up_down_slope              null              null     up_down_slope              null              null              null              null              null
agrl1062_lum                      null         nopl_comm              null        rc_strow_g     up_down_slope              null              null     up_down_slope              null              null              null              null              null
agrl1063_lum                      null         nopl_comm              null        rc_strow_g     up_down_slope              null              null     up_down_slope              null              null              null              null              null
agrl1064_lum                      null         nopl_comm              null        rc_strow_g     up_down_slope              null              null     up_down_slope              null              null              null              null              null
agrl1065_lum                      null         nopl_comm              null        rc_strow_g     up_down_slope              null              null     up_down_slope              null              null              null              null              null
agrl1066_lum                      null         nopl_comm              null        rc_strow_g     up_down_slope              null              null     up_down_slope              null              null              null              null              null
agrl1067_lum                      null         nopl_comm              null        rc_strow_g     up_down_slope              null              null     up_down_slope              null              null              null              null              null
agrl1068_lum                      null         nopl_comm              null        rc_strow_g     up_down_slope              null              null     up_down_slope              null              null              null              null              null
agrl1069_lum                      null         nopl_comm              null        rc_strow_g     up_down_slope              null              null     up_down_slope              null              null              null              null              null
agrl107_lum                       null         nopl_comm              null        rc_strow_g     up_down_slope              null              null     up_down_slope              null              null              null              null              null
agrl1070_lum                      null         nopl_comm              null        rc_strow_g     up_down_slope              null              null     up_down_slope              null              null              null              null              null
agrl1071_lum                      null         nopl_comm              null        rc_strow_g     up_down_slope              null              null     up_down_slope              null              null              null              null              null
agrl1072_lum                      null         nopl_comm              null        rc_strow_g     up_down_slope              null              null     up_down_slope              null              null              null              null              null
agrl1073_lum                      null         nopl_comm              null        rc_strow_g     up_down_slope              null              null     up_down_slope              null              null              null              null              null
agrl1074_lum                      null         nopl_comm              null        rc_strow_g     up_down_slope              null              null     up_down_slope              null              null              null              null              null
agrl1075_lum                      null         nopl_comm              null        rc_strow_g     up_down_slope              null              null     up_down_slope              null              null              null              null              null
agrl1076_lum                      null         nopl_comm              null        rc_strow_g     up_down_slope              null              null     up_down_slope              null              null              null              null              null
agrl1077_lum                      null         nopl_comm              null        rc_strow_g     up_down_slope              null              null     up_down_slope              null              null              null              null              null
agrl1078_lum                      null         nopl_comm              null        rc_strow_g     up_down_slope              null              null     up_down_slope              null              null              null              null              null
agrl1079_lum                      null         nopl_comm              null        rc_strow_g     up_down_slope              null              null     up_down_slope              null              null              null              null              null
agrl108_lum                       null         nopl_comm              null        rc_strow_g     up_down_slope              null              null     up_down_slope              null              null              null              null              null
agrl1080_lum                      null         nopl_comm              null        rc_strow_g     up_down_slope              null              null     up_down_slope              null              null              null              null              null
agrl1081_lum                      null         nopl_comm              null        rc_strow_g     up_down_slope              null              null     up_down_slope              null              null              null              null              null
agrl1082_lum                      null         nopl_comm              null        rc_strow_g     up_down_slope              null              null     up_down_slope              null              null              null              null              null
agrl1083_lum                      null         nopl_comm              null        rc_strow_g     up_down_slope              null              null     up_down_slope              null              null              null              null              null
agrl1084_lum                      null         nopl_comm              null        rc_strow_g     up_down_slope              null              null     up_down_slope              null              null              null              null              null
agrl1085_lum                      null         nopl_comm              null        rc_strow_g     up_down_slope              null              null     up_down_slope              null              null              null              null              null
agrl1086_lum                      null         nopl_comm              null        rc_strow_g     up_down_slope              null              null     up_down_slope              null              null              null              null              null
agrl1087_lum                      null         nopl_comm              null        rc_strow_g     up_down_slope              null              null     up_down_slope              null              null              null              null              null
agrl1088_lum                      null         nopl_comm              null        rc_strow_g     up_down_slope              null              null     up_down_slope              null              null              null              null              null
agrl1089_lum                      null         nopl_comm              null        rc_strow_g     up_down_slope              null              null     up_down_slope              null              null              null              null              null
agrl109_lum                       null         nopl_comm              null        rc_strow_g     up_down_slope              null              null     up_down_slope              null              null              null              null              null
agrl1090_lum                      null         nopl_comm              null        rc_strow_g     up_down_slope              null              null     up_down_slope              null              null              null              null              null
agrl1091_lum                      null         nopl_comm              null        rc_strow_g     up_down_slope              null              null     up_down_slope              null              null              null              null              null
agrl1092_lum                      null         nopl_comm              null        rc_strow_g     up_down_slope              null              null     up_down_slope              null              null              null              null              null
agrl1093_lum                      null         nopl_comm              null        rc_strow_g     up_down_slope              null              null     up_down_slope              null              null              null              null              null
agrl1094_lum                      null         nopl_comm              null        rc_strow_g     up_down_slope              null              null     up_down_slope              null              null              null              null              null
agrl1095_lum                      null         nopl_comm              null        rc_strow_g     up_down_slope              null              null     up_down_slope              null              null              null              null              null
agrl1096_lum                      null         nopl_comm              null        rc_strow_g     up_down_slope              null              null     up_down_slope              null              null              null              null              null
agrl1097_lum                      null         nopl_comm              null        rc_strow_g     up_down_slope              null              null     up_down_slope              null              null              null              null              null
agrl1098_lum                      null         nopl_comm              null        rc_strow_g     up_down_slope              null              null     up_down_slope              null              null              null              null              null
agrl1099_lum                      null         nopl_comm              null        rc_strow_g     up_down_slope              null              null     up_down_slope              null              null              null              null              null
agrl11_lum                        null         nopl_comm              null        rc_strow_g     up_down_slope              null              null     up_down_slope              null              null              null              null              null
agrl110_lum                       null         nopl_comm              null        rc_strow_g     up_down_slope              null              null     up_down_slope              null              null              null              null              null
agrl1100_lum                      null         nopl_comm              null        rc_strow_g     up_down_slope              null              null     up_down_slope              null              null              null              null              null
agrl1101_lum                      null         nopl_comm              null        rc_strow_g     up_down_slope              null              null     up_down_slope              null              null              null              null              null